<additional xmlns:xsi="http://www.w3.org/2001/XMLSchema-instance" xsi:noNamespaceSchemaLocation="http://sumo.dlr.de/xsd/additional_file.xsd">
    <e1Detector file="e1output.xml" freq="1" id="e1det_1_2_0" lane="1_2_0" pos="-1"/>
    <e1Detector file="e1output.xml" freq="1" id="e1det_1_2_1" lane="1_2_1" pos="-1"/>
    <e1Detector file="e1output.xml" freq="1" id="e1det_1_2_2" lane="1_2_2" pos="-1"/>
    <e1Detector file="e1output.xml" freq="1" id="e1det_3_2_0" lane="3_2_0" pos="-1"/>
    <e1Detector file="e1output.xml" freq="1" id="e1det_3_2_1" lane="3_2_1" pos="-1"/>
    <e1Detector file="e1output.xml" freq="1"  id="e1det_3_2_2" lane="3_2_2" pos="-1"/>
    <e1Detector file="e1output.xml" freq="1" id="e1det_5_2_0" lane="5_2_0"  pos="-1"/>
    <e1Detector file="e1output.xml" freq="1"  id="e1det_5_2_1" lane="5_2_1"  pos="-1"/>
    <e1Detector file="e1output.xml" freq="1" id="e1det_5_2_2" lane="5_2_2" pos="-1"/>
    <e1Detector file="e1output.xml" freq="1" id="e1det_N2_2_0" lane="N2_2_0" pos="-1"/>
    <e1Detector file="e1output.xml" freq="1" id="e1det_N2_2_1" lane="N2_2_1" pos="-1"/>
    <e1Detector file="e1output.xml" freq="1" id="e1det_N2_2_2" lane="N2_2_2" pos="-1"/>
    <e1Detector file="e1output.xml" freq="1" id="e1det_1_4_0" lane="1_4_0"  pos="-1"/>
    <e1Detector file="e1output.xml" freq="1" id="e1det_1_4_1" lane="1_4_1" pos="-1"/>
    <e1Detector file="e1output.xml" freq="1"  id="e1det_1_4_2" lane="1_4_2" pos="-1"/>
    <e1Detector file="e1output.xml" freq="1" id="e1det_5_4_0" lane="5_4_0" pos="-1"/>
    <e1Detector file="e1output.xml" freq="1" id="e1det_5_4_1" lane="5_4_1" pos="-1"/>
    <e1Detector file="e1output.xml" freq="1" id="e1det_5_4_2" lane="5_4_2" pos="-1"/>
    <e1Detector file="e1output.xml" freq="1"  id="e1det_7_4_0" lane="7_4_0" pos="-1"/>
    <e1Detector file="e1output.xml" freq="1"  id="e1det_7_4_1" lane="7_4_1" pos="-1"/>
    <e1Detector file="e1output.xml" freq="1" id="e1det_7_4_2" lane="7_4_2" pos="-1"/>
    <e1Detector file="e1output.xml" freq="1" id="e1det_W2_4_0" lane="W2_4_0" pos="-1"/>
    <e1Detector file="e1output.xml" freq="1" id="e1det_W2_4_1" lane="W2_4_1"  pos="-1"/>
    <e1Detector file="e1output.xml" freq="1" id="e1det_W2_4_2" lane="W2_4_2" pos="-1"/>
    <e1Detector file="e1output.xml" freq="1"  id="e1det_2_1_0" lane="2_1_0" pos="-1"/>
    <e1Detector file="e1output.xml" freq="1"  id="e1det_2_1_1" lane="2_1_1" pos="-1"/>
    <e1Detector file="e1output.xml" freq="1"  id="e1det_2_1_2" lane="2_1_2"  pos="-1"/>
    <e1Detector file="e1output.xml" freq="1" id="e1det_4_1_0" lane="4_1_0" pos="-1"/>
    <e1Detector file="e1output.xml" freq="1" id="e1det_4_1_1" lane="4_1_1"  pos="-1"/>
    <e1Detector file="e1output.xml" freq="1"  id="e1det_4_1_2" lane="4_1_2" pos="-1"/>
    <e1Detector file="e1output.xml" freq="1"  id="e1det_N1_1_0" lane="N1_1_0" pos="-1"/>
    <e1Detector file="e1output.xml" freq="1" id="e1det_N1_1_1" lane="N1_1_1" pos="-1"/>
    <e1Detector file="e1output.xml" freq="1"  id="e1det_N1_1_2" lane="N1_1_2"  pos="-1"/>
    <e1Detector file="e1output.xml" freq="1" id="e1det_W1_1_0" lane="W1_1_0" pos="-1"/>
    <e1Detector file="e1output.xml" freq="1" id="e1det_W1_1_1" lane="W1_1_1" pos="-1"/>
    <e1Detector file="e1output.xml" freq="1"  id="e1det_W1_1_2" lane="W1_1_2"  pos="-1"/>
    <e1Detector file="e1output.xml" freq="1"  id="e1det_2_3_0" lane="2_3_0"  pos="-1"/>
    <e1Detector file="e1output.xml" freq="1"  id="e1det_2_3_1" lane="2_3_1" pos="-1"/>
    <e1Detector file="e1output.xml" freq="1" id="e1det_2_3_2" lane="2_3_2" pos="-1"/>
    <e1Detector file="e1output.xml" freq="1" id="e1det_6_3_0" lane="6_3_0"  pos="-1"/>
    <e1Detector file="e1output.xml" freq="1" id="e1det_6_3_1" lane="6_3_1" pos="-1"/>
    <e1Detector file="e1output.xml" freq="1"  id="e1det_6_3_2" lane="6_3_2"  pos="-1"/>
    <e1Detector file="e1output.xml" freq="1" id="e1det_E1_3_0" lane="E1_3_0" pos="-1"/>
    <e1Detector file="e1output.xml" freq="1"  id="e1det_E1_3_1" lane="E1_3_1" pos="-1"/>
    <e1Detector file="e1output.xml" freq="1"  id="e1det_E1_3_2" lane="E1_3_2" pos="-1"/>
    <e1Detector file="e1output.xml" freq="1"  id="e1det_N3_3_0" lane="N3_3_0"  pos="-1"/>
    <e1Detector file="e1output.xml" freq="1" id="e1det_N3_3_1" lane="N3_3_1" pos="-1"/>
    <e1Detector file="e1output.xml" freq="1"  id="e1det_N3_3_2" lane="N3_3_2" pos="-1"/>
    <e1Detector file="e1output.xml" freq="1"  id="e1det_2_5_0" lane="2_5_0" pos="-1"/>
    <e1Detector file="e1output.xml" freq="1"  id="e1det_2_5_1" lane="2_5_1"  pos="-1"/>
    <e1Detector file="e1output.xml" freq="1"  id="e1det_2_5_2" lane="2_5_2" pos="-1"/>
    <e1Detector file="e1output.xml" freq="1"  id="e1det_4_5_0" lane="4_5_0" pos="-1"/>
    <e1Detector file="e1output.xml" freq="1"  id="e1det_4_5_1" lane="4_5_1" pos="-1"/>
    <e1Detector file="e1output.xml" freq="1"  id="e1det_4_5_2" lane="4_5_2" pos="-1"/>
    <e1Detector file="e1output.xml" freq="1"   id="e1det_6_5_0" lane="6_5_0"  pos="-1"/>
    <e1Detector file="e1output.xml" freq="1"  id="e1det_6_5_1" lane="6_5_1" pos="-1"/>
    <e1Detector file="e1output.xml" freq="1"  id="e1det_6_5_2" lane="6_5_2"  pos="-1"/>
    <e1Detector file="e1output.xml" freq="1"   id="e1det_8_5_0" lane="8_5_0" pos="-1"/>
    <e1Detector file="e1output.xml" freq="1"   id="e1det_8_5_1" lane="8_5_1" pos="-1"/>
    <e1Detector file="e1output.xml" freq="1" id="e1det_8_5_2" lane="8_5_2" pos="-1"/>
    <e1Detector file="e1output.xml" freq="1" id="e1det_3_6_0" lane="3_6_0"  pos="-1"/>
    <e1Detector file="e1output.xml" freq="1"  id="e1det_3_6_1" lane="3_6_1" pos="-1"/>
    <e1Detector file="e1output.xml" freq="1" id="e1det_3_6_2" lane="3_6_2" pos="-1"/>
    <e1Detector file="e1output.xml" freq="1"  id="e1det_5_6_0" lane="5_6_0" pos="-1"/>
    <e1Detector file="e1output.xml" freq="1"  id="e1det_5_6_1" lane="5_6_1" pos="-1"/>
    <e1Detector file="e1output.xml" freq="1"  id="e1det_5_6_2" lane="5_6_2" pos="-1"/>
    <e1Detector file="e1output.xml" freq="1"  id="e1det_9_6_0" lane="9_6_0"  pos="-1"/>
    <e1Detector file="e1output.xml" freq="1"  id="e1det_9_6_1" lane="9_6_1" pos="-1"/>
    <e1Detector file="e1output.xml" freq="1" id="e1det_9_6_2" lane="9_6_2" pos="-1"/>
    <e1Detector file="e1output.xml" freq="1"   id="e1det_E2_6_0" lane="E2_6_0" pos="-1"/>
    <e1Detector file="e1output.xml" freq="1"   id="e1det_E2_6_1" lane="E2_6_1"  pos="-1"/>
    <e1Detector file="e1output.xml" freq="1"  id="e1det_E2_6_2" lane="E2_6_2" pos="-1"/>
    <e1Detector file="e1output.xml" freq="1"  id="e1det_4_7_0" lane="4_7_0" pos="-1"/>
    <e1Detector file="e1output.xml" freq="1"  id="e1det_4_7_1" lane="4_7_1" pos="-1"/>
    <e1Detector file="e1output.xml" freq="1"  id="e1det_4_7_2" lane="4_7_2" pos="-1"/>
    <e1Detector file="e1output.xml" freq="1"  id="e1det_8_7_0" lane="8_7_0" pos="-1"/>
    <e1Detector file="e1output.xml" freq="1"  id="e1det_8_7_1" lane="8_7_1" pos="-1"/>
    <e1Detector file="e1output.xml" freq="1"  id="e1det_8_7_2" lane="8_7_2"  pos="-1"/>
    <e1Detector file="e1output.xml" freq="1"  id="e1det_S1_7_0" lane="S1_7_0" pos="-1"/>
    <e1Detector file="e1output.xml" freq="1"  id="e1det_S1_7_1" lane="S1_7_1" pos="-1"/>
    <e1Detector file="e1output.xml" freq="1"  id="e1det_S1_7_2" lane="S1_7_2" pos="-1"/>
    <e1Detector file="e1output.xml" freq="1"  id="e1det_W3_7_0" lane="W3_7_0" pos="-1"/>
    <e1Detector file="e1output.xml" freq="1"  id="e1det_W3_7_1" lane="W3_7_1" pos="-1"/>
    <e1Detector file="e1output.xml" freq="1"  id="e1det_W3_7_2" lane="W3_7_2" pos="-1"/>
    <e1Detector file="e1output.xml" freq="1"  id="e1det_5_8_0" lane="5_8_0" pos="-1"/>
    <e1Detector file="e1output.xml" freq="1"  id="e1det_5_8_1" lane="5_8_1"  pos="-1"/>
    <e1Detector file="e1output.xml" freq="1"  id="e1det_5_8_2" lane="5_8_2" pos="-1"/>
    <e1Detector file="e1output.xml" freq="1"  id="e1det_7_8_0" lane="7_8_0" pos="-1"/>
    <e1Detector file="e1output.xml" freq="1"  id="e1det_7_8_1" lane="7_8_1" pos="-1"/>
    <e1Detector file="e1output.xml" freq="1"  id="e1det_7_8_2" lane="7_8_2" pos="-1"/>
    <e1Detector file="e1output.xml" freq="1"  id="e1det_9_8_0" lane="9_8_0" pos="-1"/>
    <e1Detector file="e1output.xml" freq="1"  id="e1det_9_8_1" lane="9_8_1" pos="-1"/>
    <e1Detector file="e1output.xml" freq="1"  id="e1det_9_8_2" lane="9_8_2" pos="-1"/>
    <e1Detector file="e1output.xml" freq="1"  id="e1det_S2_8_0" lane="S2_8_0" pos="-1"/>
    <e1Detector file="e1output.xml" freq="1"  id="e1det_S2_8_1" lane="S2_8_1" pos="-1"/>
    <e1Detector file="e1output.xml" freq="1"  id="e1det_S2_8_2" lane="S2_8_2" pos="-1"/>
    <e1Detector file="e1output.xml" freq="1"  id="e1det_6_9_0" lane="6_9_0" pos="-1"/>
    <e1Detector file="e1output.xml" freq="1"  id="e1det_6_9_1" lane="6_9_1" pos="-1"/>
    <e1Detector file="e1output.xml" freq="1"  id="e1det_6_9_2" lane="6_9_2" pos="-1"/>
    <e1Detector file="e1output.xml" freq="1"  id="e1det_8_9_0" lane="8_9_0" pos="-1"/>
    <e1Detector file="e1output.xml" freq="1"  id="e1det_8_9_1" lane="8_9_1"  pos="-1"/>
    <e1Detector file="e1output.xml" freq="1"  id="e1det_8_9_2" lane="8_9_2"  pos="-1"/>
    <e1Detector file="e1output.xml" freq="1"  id="e1det_E3_9_0" lane="E3_9_0"  pos="-1"/>
    <e1Detector file="e1output.xml" freq="1"  id="e1det_E3_9_1" lane="E3_9_1"  pos="-1"/>
    <e1Detector file="e1output.xml" freq="1"  id="e1det_E3_9_2" lane="E3_9_2"  pos="-1"/>
    <e1Detector file="e1output.xml" freq="1"  id="e1det_S3_9_0" lane="S3_9_0" pos="-1"/>
    <e1Detector file="e1output.xml" freq="1"  id="e1det_S3_9_1" lane="S3_9_1"  pos="-1"/>
    <e1Detector file="e1output.xml" freq="1"  id="e1det_S3_9_2" lane="S3_9_2" pos="-1"/>



</additional>
