<?xml version="1.0" encoding="UTF-8"?>
<!-- generated on 2024-08-28 10:26:11.282413 by randomTrips.py v1_11_0+0000-d32ff7d52a3
  options: -n SUMO_roadnet_4_4_4_phase_Right_Green_turn_30.net.xml -b 600 -e 1200 <doubleminus>period 1 <doubleminus>fringe-factor 7200 -L -o uniform_2.trips.xml
-->
<routes xmlns:xsi="http://www.w3.org/2001/XMLSchema-instance" xsi:noNamespaceSchemaLocation="http://sumo.dlr.de/xsd/routes_file.xsd">
    <trip id="2_0" depart="600.00" from="road_4_0_1" to="road_1_1_2"/>
    <trip id="2_1" depart="601.00" from="road_1_0_1" to="road_1_3_2"/>
    <trip id="2_2" depart="602.00" from="road_4_5_3" to="road_4_1_0"/>
    <trip id="2_3" depart="603.00" from="road_5_3_2" to="road_1_1_3"/>
    <trip id="2_4" depart="604.00" from="road_2_0_1" to="road_1_1_2"/>
    <trip id="2_5" depart="605.00" from="road_0_4_0" to="road_3_1_3"/>
    <trip id="2_6" depart="606.00" from="road_0_1_0" to="road_1_3_2"/>
    <trip id="2_7" depart="607.00" from="road_4_0_1" to="road_3_1_3"/>
    <trip id="2_8" depart="608.00" from="road_0_4_0" to="road_3_4_1"/>
    <trip id="2_9" depart="609.00" from="road_5_1_2" to="road_1_1_2"/>
    <trip id="2_10" depart="610.00" from="road_5_1_2" to="road_4_1_3"/>
    <trip id="2_11" depart="611.00" from="road_1_5_3" to="road_1_2_2"/>
    <trip id="2_12" depart="612.00" from="road_5_4_2" to="road_1_4_2"/>
    <trip id="2_13" depart="613.00" from="road_0_2_0" to="road_1_1_3"/>
    <trip id="2_14" depart="614.00" from="road_5_2_2" to="road_3_4_1"/>
    <trip id="2_15" depart="615.00" from="road_5_1_2" to="road_4_1_3"/>
    <trip id="2_16" depart="616.00" from="road_3_0_1" to="road_4_4_1"/>
    <trip id="2_17" depart="617.00" from="road_2_0_1" to="road_3_1_3"/>
    <trip id="2_18" depart="618.00" from="road_5_2_2" to="road_3_4_1"/>
    <trip id="2_19" depart="619.00" from="road_5_2_2" to="road_3_4_1"/>
    <trip id="2_20" depart="620.00" from="road_4_5_3" to="road_1_1_2"/>
    <trip id="2_21" depart="621.00" from="road_0_4_0" to="road_1_4_1"/>
    <trip id="2_22" depart="622.00" from="road_0_2_0" to="road_1_3_2"/>
    <trip id="2_23" depart="623.00" from="road_0_2_0" to="road_1_4_1"/>
    <trip id="2_24" depart="624.00" from="road_4_0_1" to="road_1_4_2"/>
    <trip id="2_25" depart="625.00" from="road_1_5_3" to="road_1_3_2"/>
    <trip id="2_26" depart="626.00" from="road_1_0_1" to="road_4_4_0"/>
    <trip id="2_27" depart="627.00" from="road_4_0_1" to="road_3_4_1"/>
    <trip id="2_28" depart="628.00" from="road_0_3_0" to="road_4_1_3"/>
    <trip id="2_29" depart="629.00" from="road_0_3_0" to="road_2_1_3"/>
    <trip id="2_30" depart="630.00" from="road_5_4_2" to="road_4_1_0"/>
    <trip id="2_31" depart="631.00" from="road_3_0_1" to="road_4_1_0"/>
    <trip id="2_32" depart="632.00" from="road_5_2_2" to="road_4_2_0"/>
    <trip id="2_33" depart="633.00" from="road_0_4_0" to="road_1_1_2"/>
    <trip id="2_34" depart="634.00" from="road_1_5_3" to="road_1_4_1"/>
    <trip id="2_35" depart="635.00" from="road_0_4_0" to="road_4_4_1"/>
    <trip id="2_36" depart="636.00" from="road_5_3_2" to="road_1_4_2"/>
    <trip id="2_37" depart="637.00" from="road_4_0_1" to="road_2_1_3"/>
    <trip id="2_38" depart="638.00" from="road_5_3_2" to="road_2_4_1"/>
    <trip id="2_39" depart="639.00" from="road_1_0_1" to="road_1_3_2"/>
    <trip id="2_40" depart="640.00" from="road_3_0_1" to="road_1_4_1"/>
    <trip id="2_41" depart="641.00" from="road_3_5_3" to="road_4_4_0"/>
    <trip id="2_42" depart="642.00" from="road_2_0_1" to="road_1_3_2"/>
    <trip id="2_43" depart="643.00" from="road_5_4_2" to="road_3_1_3"/>
    <trip id="2_44" depart="644.00" from="road_0_2_0" to="road_1_1_2"/>
    <trip id="2_45" depart="645.00" from="road_0_2_0" to="road_4_1_0"/>
    <trip id="2_46" depart="646.00" from="road_5_1_2" to="road_2_1_3"/>
    <trip id="2_47" depart="647.00" from="road_0_2_0" to="road_2_1_3"/>
    <trip id="2_48" depart="648.00" from="road_5_4_2" to="road_3_1_3"/>
    <trip id="2_49" depart="649.00" from="road_5_4_2" to="road_4_3_0"/>
    <trip id="2_50" depart="650.00" from="road_0_1_0" to="road_4_1_3"/>
    <trip id="2_51" depart="651.00" from="road_4_0_1" to="road_3_1_3"/>
    <trip id="2_52" depart="652.00" from="road_1_0_1" to="road_4_1_0"/>
    <trip id="2_53" depart="653.00" from="road_0_2_0" to="road_2_1_3"/>
    <trip id="2_54" depart="654.00" from="road_2_5_3" to="road_4_4_1"/>
    <trip id="2_55" depart="655.00" from="road_5_3_2" to="road_1_4_1"/>
    <trip id="2_56" depart="656.00" from="road_3_0_1" to="road_1_2_2"/>
    <trip id="2_57" depart="657.00" from="road_5_3_2" to="road_4_3_0"/>
    <trip id="2_58" depart="658.00" from="road_1_0_1" to="road_4_1_0"/>
    <trip id="2_59" depart="659.00" from="road_3_5_3" to="road_1_2_2"/>
    <trip id="2_60" depart="660.00" from="road_5_1_2" to="road_3_1_3"/>
    <trip id="2_61" depart="661.00" from="road_5_1_2" to="road_3_1_3"/>
    <trip id="2_62" depart="662.00" from="road_0_1_0" to="road_1_4_2"/>
    <trip id="2_63" depart="663.00" from="road_0_1_0" to="road_4_4_0"/>
    <trip id="2_64" depart="664.00" from="road_5_3_2" to="road_4_3_0"/>
    <trip id="2_65" depart="665.00" from="road_1_0_1" to="road_1_1_2"/>
    <trip id="2_66" depart="666.00" from="road_5_3_2" to="road_4_4_1"/>
    <trip id="2_67" depart="667.00" from="road_0_2_0" to="road_2_4_1"/>
    <trip id="2_68" depart="668.00" from="road_0_2_0" to="road_4_2_0"/>
    <trip id="2_69" depart="669.00" from="road_5_1_2" to="road_1_2_2"/>
    <trip id="2_70" depart="670.00" from="road_2_5_3" to="road_3_1_3"/>
    <trip id="2_71" depart="671.00" from="road_1_0_1" to="road_4_3_0"/>
    <trip id="2_72" depart="672.00" from="road_2_0_1" to="road_1_3_2"/>
    <trip id="2_73" depart="673.00" from="road_3_0_1" to="road_4_1_3"/>
    <trip id="2_74" depart="674.00" from="road_0_4_0" to="road_1_4_1"/>
    <trip id="2_75" depart="675.00" from="road_5_4_2" to="road_4_1_0"/>
    <trip id="2_76" depart="676.00" from="road_2_5_3" to="road_3_1_3"/>
    <trip id="2_77" depart="677.00" from="road_0_2_0" to="road_1_3_2"/>
    <trip id="2_78" depart="678.00" from="road_1_5_3" to="road_3_4_1"/>
    <trip id="2_79" depart="679.00" from="road_0_4_0" to="road_1_3_2"/>
    <trip id="2_80" depart="680.00" from="road_0_2_0" to="road_4_1_0"/>
    <trip id="2_81" depart="681.00" from="road_0_4_0" to="road_4_4_0"/>
    <trip id="2_82" depart="682.00" from="road_5_2_2" to="road_1_1_3"/>
    <trip id="2_83" depart="683.00" from="road_0_4_0" to="road_4_1_0"/>
    <trip id="2_84" depart="684.00" from="road_0_4_0" to="road_1_2_2"/>
    <trip id="2_85" depart="685.00" from="road_5_3_2" to="road_3_4_1"/>
    <trip id="2_86" depart="686.00" from="road_2_5_3" to="road_4_2_0"/>
    <trip id="2_87" depart="687.00" from="road_5_1_2" to="road_1_3_2"/>
    <trip id="2_88" depart="688.00" from="road_0_2_0" to="road_2_1_3"/>
    <trip id="2_89" depart="689.00" from="road_2_0_1" to="road_2_4_1"/>
    <trip id="2_90" depart="690.00" from="road_4_5_3" to="road_4_1_0"/>
    <trip id="2_91" depart="691.00" from="road_5_4_2" to="road_1_1_3"/>
    <trip id="2_92" depart="692.00" from="road_2_0_1" to="road_1_4_2"/>
    <trip id="2_93" depart="693.00" from="road_5_2_2" to="road_1_3_2"/>
    <trip id="2_94" depart="694.00" from="road_0_4_0" to="road_2_4_1"/>
    <trip id="2_95" depart="695.00" from="road_2_0_1" to="road_1_4_1"/>
    <trip id="2_96" depart="696.00" from="road_0_4_0" to="road_4_4_0"/>
    <trip id="2_97" depart="697.00" from="road_2_5_3" to="road_4_3_0"/>
    <trip id="2_98" depart="698.00" from="road_3_0_1" to="road_1_1_2"/>
    <trip id="2_99" depart="699.00" from="road_5_4_2" to="road_4_3_0"/>
    <trip id="2_100" depart="700.00" from="road_5_4_2" to="road_4_4_0"/>
    <trip id="2_101" depart="701.00" from="road_5_2_2" to="road_1_2_2"/>
    <trip id="2_102" depart="702.00" from="road_2_5_3" to="road_1_3_2"/>
    <trip id="2_103" depart="703.00" from="road_2_0_1" to="road_1_1_2"/>
    <trip id="2_104" depart="704.00" from="road_2_0_1" to="road_4_4_1"/>
    <trip id="2_105" depart="705.00" from="road_1_0_1" to="road_4_2_0"/>
    <trip id="2_106" depart="706.00" from="road_2_5_3" to="road_2_1_3"/>
    <trip id="2_107" depart="707.00" from="road_5_4_2" to="road_4_4_1"/>
    <trip id="2_108" depart="708.00" from="road_3_0_1" to="road_4_1_3"/>
    <trip id="2_109" depart="709.00" from="road_0_3_0" to="road_1_4_1"/>
    <trip id="2_110" depart="710.00" from="road_5_4_2" to="road_3_4_1"/>
    <trip id="2_111" depart="711.00" from="road_3_0_1" to="road_4_1_3"/>
    <trip id="2_112" depart="712.00" from="road_0_1_0" to="road_3_4_1"/>
    <trip id="2_113" depart="713.00" from="road_3_0_1" to="road_4_3_0"/>
    <trip id="2_114" depart="714.00" from="road_0_3_0" to="road_4_4_1"/>
    <trip id="2_115" depart="715.00" from="road_0_2_0" to="road_1_2_2"/>
    <trip id="2_116" depart="716.00" from="road_3_5_3" to="road_4_1_0"/>
    <trip id="2_117" depart="717.00" from="road_0_4_0" to="road_1_1_3"/>
    <trip id="2_118" depart="718.00" from="road_5_3_2" to="road_1_3_2"/>
    <trip id="2_119" depart="719.00" from="road_3_5_3" to="road_3_4_1"/>
    <trip id="2_120" depart="720.00" from="road_2_0_1" to="road_3_4_1"/>
    <trip id="2_121" depart="721.00" from="road_3_0_1" to="road_4_4_0"/>
    <trip id="2_122" depart="722.00" from="road_0_4_0" to="road_4_1_3"/>
    <trip id="2_123" depart="723.00" from="road_0_4_0" to="road_2_1_3"/>
    <trip id="2_124" depart="724.00" from="road_4_0_1" to="road_1_4_1"/>
    <trip id="2_125" depart="725.00" from="road_1_5_3" to="road_4_2_0"/>
    <trip id="2_126" depart="726.00" from="road_0_2_0" to="road_2_4_1"/>
    <trip id="2_127" depart="727.00" from="road_5_4_2" to="road_4_4_1"/>
    <trip id="2_128" depart="728.00" from="road_0_2_0" to="road_1_3_2"/>
    <trip id="2_129" depart="729.00" from="road_1_0_1" to="road_4_4_0"/>
    <trip id="2_130" depart="730.00" from="road_5_3_2" to="road_4_4_0"/>
    <trip id="2_131" depart="731.00" from="road_1_5_3" to="road_1_2_2"/>
    <trip id="2_132" depart="732.00" from="road_5_2_2" to="road_4_1_3"/>
    <trip id="2_133" depart="733.00" from="road_3_5_3" to="road_4_4_1"/>
    <trip id="2_134" depart="734.00" from="road_4_0_1" to="road_1_1_2"/>
    <trip id="2_135" depart="735.00" from="road_5_2_2" to="road_1_4_1"/>
    <trip id="2_136" depart="736.00" from="road_4_0_1" to="road_4_4_1"/>
    <trip id="2_137" depart="737.00" from="road_0_3_0" to="road_1_1_3"/>
    <trip id="2_138" depart="738.00" from="road_0_2_0" to="road_3_1_3"/>
    <trip id="2_139" depart="739.00" from="road_1_0_1" to="road_3_4_1"/>
    <trip id="2_140" depart="740.00" from="road_4_5_3" to="road_1_3_2"/>
    <trip id="2_141" depart="741.00" from="road_4_0_1" to="road_1_4_1"/>
    <trip id="2_142" depart="742.00" from="road_2_5_3" to="road_4_4_0"/>
    <trip id="2_143" depart="743.00" from="road_5_2_2" to="road_1_1_3"/>
    <trip id="2_144" depart="744.00" from="road_2_0_1" to="road_1_4_1"/>
    <trip id="2_145" depart="745.00" from="road_0_1_0" to="road_4_2_0"/>
    <trip id="2_146" depart="746.00" from="road_4_0_1" to="road_1_4_1"/>
    <trip id="2_147" depart="747.00" from="road_4_5_3" to="road_3_1_3"/>
    <trip id="2_148" depart="748.00" from="road_2_0_1" to="road_1_1_2"/>
    <trip id="2_149" depart="749.00" from="road_0_2_0" to="road_4_4_0"/>
    <trip id="2_150" depart="750.00" from="road_5_3_2" to="road_3_1_3"/>
    <trip id="2_151" depart="751.00" from="road_5_2_2" to="road_3_4_1"/>
    <trip id="2_152" depart="752.00" from="road_0_3_0" to="road_1_2_2"/>
    <trip id="2_153" depart="753.00" from="road_1_0_1" to="road_4_4_0"/>
    <trip id="2_154" depart="754.00" from="road_5_1_2" to="road_4_3_0"/>
    <trip id="2_155" depart="755.00" from="road_5_3_2" to="road_1_3_2"/>
    <trip id="2_156" depart="756.00" from="road_0_4_0" to="road_1_1_3"/>
    <trip id="2_157" depart="757.00" from="road_5_1_2" to="road_4_4_0"/>
    <trip id="2_158" depart="758.00" from="road_2_0_1" to="road_3_4_1"/>
    <trip id="2_159" depart="759.00" from="road_0_3_0" to="road_4_4_0"/>
    <trip id="2_160" depart="760.00" from="road_5_2_2" to="road_4_4_1"/>
    <trip id="2_161" depart="761.00" from="road_5_1_2" to="road_4_4_0"/>
    <trip id="2_162" depart="762.00" from="road_0_1_0" to="road_4_1_3"/>
    <trip id="2_163" depart="763.00" from="road_1_5_3" to="road_4_4_0"/>
    <trip id="2_164" depart="764.00" from="road_5_1_2" to="road_4_3_0"/>
    <trip id="2_165" depart="765.00" from="road_5_1_2" to="road_1_4_1"/>
    <trip id="2_166" depart="766.00" from="road_5_1_2" to="road_1_1_3"/>
    <trip id="2_167" depart="767.00" from="road_5_2_2" to="road_4_3_0"/>
    <trip id="2_168" depart="768.00" from="road_0_4_0" to="road_4_3_0"/>
    <trip id="2_169" depart="769.00" from="road_2_5_3" to="road_1_4_1"/>
    <trip id="2_170" depart="770.00" from="road_5_1_2" to="road_1_3_2"/>
    <trip id="2_171" depart="771.00" from="road_0_1_0" to="road_1_3_2"/>
    <trip id="2_172" depart="772.00" from="road_1_5_3" to="road_4_3_0"/>
    <trip id="2_173" depart="773.00" from="road_5_4_2" to="road_1_4_1"/>
    <trip id="2_174" depart="774.00" from="road_4_0_1" to="road_2_1_3"/>
    <trip id="2_175" depart="775.00" from="road_5_4_2" to="road_3_1_3"/>
    <trip id="2_176" depart="776.00" from="road_5_4_2" to="road_1_1_3"/>
    <trip id="2_177" depart="777.00" from="road_5_4_2" to="road_1_2_2"/>
    <trip id="2_178" depart="778.00" from="road_5_4_2" to="road_1_4_1"/>
    <trip id="2_179" depart="779.00" from="road_0_2_0" to="road_2_1_3"/>
    <trip id="2_180" depart="780.00" from="road_4_5_3" to="road_1_4_2"/>
    <trip id="2_181" depart="781.00" from="road_3_5_3" to="road_3_1_3"/>
    <trip id="2_182" depart="782.00" from="road_2_0_1" to="road_3_4_1"/>
    <trip id="2_183" depart="783.00" from="road_1_0_1" to="road_4_1_3"/>
    <trip id="2_184" depart="784.00" from="road_0_1_0" to="road_4_4_0"/>
    <trip id="2_185" depart="785.00" from="road_3_0_1" to="road_4_1_3"/>
    <trip id="2_186" depart="786.00" from="road_4_5_3" to="road_4_1_0"/>
    <trip id="2_187" depart="787.00" from="road_1_5_3" to="road_1_1_3"/>
    <trip id="2_188" depart="788.00" from="road_4_0_1" to="road_1_4_2"/>
    <trip id="2_189" depart="789.00" from="road_1_5_3" to="road_4_3_0"/>
    <trip id="2_190" depart="790.00" from="road_4_5_3" to="road_1_4_1"/>
    <trip id="2_191" depart="791.00" from="road_1_0_1" to="road_2_1_3"/>
    <trip id="2_192" depart="792.00" from="road_2_0_1" to="road_1_4_1"/>
    <trip id="2_193" depart="793.00" from="road_0_3_0" to="road_2_1_3"/>
    <trip id="2_194" depart="794.00" from="road_5_4_2" to="road_4_1_0"/>
    <trip id="2_195" depart="795.00" from="road_5_3_2" to="road_3_4_1"/>
    <trip id="2_196" depart="796.00" from="road_1_0_1" to="road_3_1_3"/>
    <trip id="2_197" depart="797.00" from="road_0_1_0" to="road_1_4_1"/>
    <trip id="2_198" depart="798.00" from="road_2_0_1" to="road_3_4_1"/>
    <trip id="2_199" depart="799.00" from="road_4_0_1" to="road_2_4_1"/>
    <trip id="2_200" depart="800.00" from="road_2_5_3" to="road_1_3_2"/>
    <trip id="2_201" depart="801.00" from="road_2_5_3" to="road_4_4_0"/>
    <trip id="2_202" depart="802.00" from="road_5_1_2" to="road_1_2_2"/>
    <trip id="2_203" depart="803.00" from="road_0_2_0" to="road_3_1_3"/>
    <trip id="2_204" depart="804.00" from="road_4_0_1" to="road_1_4_2"/>
    <trip id="2_205" depart="805.00" from="road_5_2_2" to="road_4_2_0"/>
    <trip id="2_206" depart="806.00" from="road_4_0_1" to="road_1_3_2"/>
    <trip id="2_207" depart="807.00" from="road_0_4_0" to="road_1_1_2"/>
    <trip id="2_208" depart="808.00" from="road_0_4_0" to="road_2_4_1"/>
    <trip id="2_209" depart="809.00" from="road_5_2_2" to="road_1_1_3"/>
    <trip id="2_210" depart="810.00" from="road_2_0_1" to="road_4_1_0"/>
    <trip id="2_211" depart="811.00" from="road_0_4_0" to="road_4_1_3"/>
    <trip id="2_212" depart="812.00" from="road_2_5_3" to="road_1_3_2"/>
    <trip id="2_213" depart="813.00" from="road_4_0_1" to="road_1_1_2"/>
    <trip id="2_214" depart="814.00" from="road_5_1_2" to="road_4_2_0"/>
    <trip id="2_215" depart="815.00" from="road_0_2_0" to="road_2_1_3"/>
    <trip id="2_216" depart="816.00" from="road_0_3_0" to="road_4_4_1"/>
    <trip id="2_217" depart="817.00" from="road_3_0_1" to="road_1_1_2"/>
    <trip id="2_218" depart="818.00" from="road_0_4_0" to="road_4_3_0"/>
    <trip id="2_219" depart="819.00" from="road_2_5_3" to="road_4_2_0"/>
    <trip id="2_220" depart="820.00" from="road_4_0_1" to="road_4_4_1"/>
    <trip id="2_221" depart="821.00" from="road_3_5_3" to="road_4_4_1"/>
    <trip id="2_222" depart="822.00" from="road_5_3_2" to="road_3_4_1"/>
    <trip id="2_223" depart="823.00" from="road_4_5_3" to="road_3_1_3"/>
    <trip id="2_224" depart="824.00" from="road_5_2_2" to="road_3_1_3"/>
    <trip id="2_225" depart="825.00" from="road_5_3_2" to="road_4_1_3"/>
    <trip id="2_226" depart="826.00" from="road_2_5_3" to="road_1_4_1"/>
    <trip id="2_227" depart="827.00" from="road_0_4_0" to="road_4_1_0"/>
    <trip id="2_228" depart="828.00" from="road_5_1_2" to="road_3_1_3"/>
    <trip id="2_229" depart="829.00" from="road_4_0_1" to="road_1_4_1"/>
    <trip id="2_230" depart="830.00" from="road_0_2_0" to="road_1_4_1"/>
    <trip id="2_231" depart="831.00" from="road_1_0_1" to="road_1_4_2"/>
    <trip id="2_232" depart="832.00" from="road_3_0_1" to="road_1_2_2"/>
    <trip id="2_233" depart="833.00" from="road_0_4_0" to="road_4_1_3"/>
    <trip id="2_234" depart="834.00" from="road_4_5_3" to="road_1_1_3"/>
    <trip id="2_235" depart="835.00" from="road_2_0_1" to="road_3_1_3"/>
    <trip id="2_236" depart="836.00" from="road_2_0_1" to="road_1_3_2"/>
    <trip id="2_237" depart="837.00" from="road_2_0_1" to="road_4_4_0"/>
    <trip id="2_238" depart="838.00" from="road_3_5_3" to="road_4_1_3"/>
    <trip id="2_239" depart="839.00" from="road_5_2_2" to="road_4_2_0"/>
    <trip id="2_240" depart="840.00" from="road_2_0_1" to="road_1_1_2"/>
    <trip id="2_241" depart="841.00" from="road_1_5_3" to="road_4_2_0"/>
    <trip id="2_242" depart="842.00" from="road_5_2_2" to="road_4_4_1"/>
    <trip id="2_243" depart="843.00" from="road_2_0_1" to="road_4_1_3"/>
    <trip id="2_244" depart="844.00" from="road_3_0_1" to="road_3_4_1"/>
    <trip id="2_245" depart="845.00" from="road_0_4_0" to="road_1_3_2"/>
    <trip id="2_246" depart="846.00" from="road_2_0_1" to="road_1_1_2"/>
    <trip id="2_247" depart="847.00" from="road_1_5_3" to="road_4_1_0"/>
    <trip id="2_248" depart="848.00" from="road_2_0_1" to="road_1_2_2"/>
    <trip id="2_249" depart="849.00" from="road_2_5_3" to="road_1_2_2"/>
    <trip id="2_250" depart="850.00" from="road_3_5_3" to="road_1_1_2"/>
    <trip id="2_251" depart="851.00" from="road_2_0_1" to="road_3_4_1"/>
    <trip id="2_252" depart="852.00" from="road_0_1_0" to="road_4_1_0"/>
    <trip id="2_253" depart="853.00" from="road_0_3_0" to="road_2_4_1"/>
    <trip id="2_254" depart="854.00" from="road_0_1_0" to="road_2_1_3"/>
    <trip id="2_255" depart="855.00" from="road_0_4_0" to="road_1_4_2"/>
    <trip id="2_256" depart="856.00" from="road_5_1_2" to="road_2_1_3"/>
    <trip id="2_257" depart="857.00" from="road_5_1_2" to="road_4_3_0"/>
    <trip id="2_258" depart="858.00" from="road_1_0_1" to="road_1_1_3"/>
    <trip id="2_259" depart="859.00" from="road_0_1_0" to="road_3_1_3"/>
    <trip id="2_260" depart="860.00" from="road_5_4_2" to="road_1_4_2"/>
    <trip id="2_261" depart="861.00" from="road_4_0_1" to="road_4_2_0"/>
    <trip id="2_262" depart="862.00" from="road_4_0_1" to="road_4_2_0"/>
    <trip id="2_263" depart="863.00" from="road_5_4_2" to="road_1_3_2"/>
    <trip id="2_264" depart="864.00" from="road_0_1_0" to="road_1_2_2"/>
    <trip id="2_265" depart="865.00" from="road_0_3_0" to="road_4_1_0"/>
    <trip id="2_266" depart="866.00" from="road_3_5_3" to="road_1_3_2"/>
    <trip id="2_267" depart="867.00" from="road_4_5_3" to="road_4_2_0"/>
    <trip id="2_268" depart="868.00" from="road_0_3_0" to="road_3_4_1"/>
    <trip id="2_269" depart="869.00" from="road_4_5_3" to="road_1_1_3"/>
    <trip id="2_270" depart="870.00" from="road_5_2_2" to="road_4_4_1"/>
    <trip id="2_271" depart="871.00" from="road_0_2_0" to="road_1_1_2"/>
    <trip id="2_272" depart="872.00" from="road_1_0_1" to="road_4_1_0"/>
    <trip id="2_273" depart="873.00" from="road_5_4_2" to="road_2_1_3"/>
    <trip id="2_274" depart="874.00" from="road_4_5_3" to="road_1_1_3"/>
    <trip id="2_275" depart="875.00" from="road_4_5_3" to="road_4_1_0"/>
    <trip id="2_276" depart="876.00" from="road_0_2_0" to="road_4_2_0"/>
    <trip id="2_277" depart="877.00" from="road_5_2_2" to="road_3_4_1"/>
    <trip id="2_278" depart="878.00" from="road_0_2_0" to="road_4_4_1"/>
    <trip id="2_279" depart="879.00" from="road_5_1_2" to="road_1_4_2"/>
    <trip id="2_280" depart="880.00" from="road_2_0_1" to="road_1_4_2"/>
    <trip id="2_281" depart="881.00" from="road_3_0_1" to="road_1_4_2"/>
    <trip id="2_282" depart="882.00" from="road_5_2_2" to="road_4_3_0"/>
    <trip id="2_283" depart="883.00" from="road_0_2_0" to="road_4_4_1"/>
    <trip id="2_284" depart="884.00" from="road_4_0_1" to="road_4_3_0"/>
    <trip id="2_285" depart="885.00" from="road_4_5_3" to="road_2_1_3"/>
    <trip id="2_286" depart="886.00" from="road_4_5_3" to="road_4_4_1"/>
    <trip id="2_287" depart="887.00" from="road_1_0_1" to="road_4_2_0"/>
    <trip id="2_288" depart="888.00" from="road_3_0_1" to="road_2_4_1"/>
    <trip id="2_289" depart="889.00" from="road_2_0_1" to="road_4_1_3"/>
    <trip id="2_290" depart="890.00" from="road_1_0_1" to="road_4_3_0"/>
    <trip id="2_291" depart="891.00" from="road_5_2_2" to="road_1_1_3"/>
    <trip id="2_292" depart="892.00" from="road_5_3_2" to="road_1_3_2"/>
    <trip id="2_293" depart="893.00" from="road_2_5_3" to="road_3_4_1"/>
    <trip id="2_294" depart="894.00" from="road_2_0_1" to="road_1_1_2"/>
    <trip id="2_295" depart="895.00" from="road_5_2_2" to="road_1_2_2"/>
    <trip id="2_296" depart="896.00" from="road_0_4_0" to="road_4_2_0"/>
    <trip id="2_297" depart="897.00" from="road_1_5_3" to="road_4_4_0"/>
    <trip id="2_298" depart="898.00" from="road_4_5_3" to="road_1_4_1"/>
    <trip id="2_299" depart="899.00" from="road_0_1_0" to="road_4_4_1"/>
    <trip id="2_300" depart="900.00" from="road_0_2_0" to="road_4_1_3"/>
    <trip id="2_301" depart="901.00" from="road_2_5_3" to="road_4_2_0"/>
    <trip id="2_302" depart="902.00" from="road_4_5_3" to="road_4_1_0"/>
    <trip id="2_303" depart="903.00" from="road_2_5_3" to="road_4_2_0"/>
    <trip id="2_304" depart="904.00" from="road_0_2_0" to="road_1_3_2"/>
    <trip id="2_305" depart="905.00" from="road_4_5_3" to="road_1_4_1"/>
    <trip id="2_306" depart="906.00" from="road_3_5_3" to="road_2_4_1"/>
    <trip id="2_307" depart="907.00" from="road_3_0_1" to="road_2_1_3"/>
    <trip id="2_308" depart="908.00" from="road_4_5_3" to="road_1_4_2"/>
    <trip id="2_309" depart="909.00" from="road_4_5_3" to="road_1_4_1"/>
    <trip id="2_310" depart="910.00" from="road_1_0_1" to="road_1_1_3"/>
    <trip id="2_311" depart="911.00" from="road_0_4_0" to="road_1_1_3"/>
    <trip id="2_312" depart="912.00" from="road_3_0_1" to="road_4_2_0"/>
    <trip id="2_313" depart="913.00" from="road_0_3_0" to="road_1_3_2"/>
    <trip id="2_314" depart="914.00" from="road_2_5_3" to="road_4_1_3"/>
    <trip id="2_315" depart="915.00" from="road_5_4_2" to="road_3_1_3"/>
    <trip id="2_316" depart="916.00" from="road_1_0_1" to="road_1_1_3"/>
    <trip id="2_317" depart="917.00" from="road_0_4_0" to="road_1_3_2"/>
    <trip id="2_318" depart="918.00" from="road_0_3_0" to="road_1_1_2"/>
    <trip id="2_319" depart="919.00" from="road_3_0_1" to="road_1_4_1"/>
    <trip id="2_320" depart="920.00" from="road_5_4_2" to="road_3_1_3"/>
    <trip id="2_321" depart="921.00" from="road_4_5_3" to="road_1_2_2"/>
    <trip id="2_322" depart="922.00" from="road_5_2_2" to="road_2_4_1"/>
    <trip id="2_323" depart="923.00" from="road_5_2_2" to="road_3_4_1"/>
    <trip id="2_324" depart="924.00" from="road_2_5_3" to="road_2_4_1"/>
    <trip id="2_325" depart="925.00" from="road_0_3_0" to="road_1_1_2"/>
    <trip id="2_326" depart="926.00" from="road_5_4_2" to="road_2_4_1"/>
    <trip id="2_327" depart="927.00" from="road_5_2_2" to="road_2_1_3"/>
    <trip id="2_328" depart="928.00" from="road_0_2_0" to="road_4_1_0"/>
    <trip id="2_329" depart="929.00" from="road_0_1_0" to="road_1_2_2"/>
    <trip id="2_330" depart="930.00" from="road_3_5_3" to="road_1_4_1"/>
    <trip id="2_331" depart="931.00" from="road_5_4_2" to="road_1_1_3"/>
    <trip id="2_332" depart="932.00" from="road_5_1_2" to="road_3_4_1"/>
    <trip id="2_333" depart="933.00" from="road_5_1_2" to="road_1_3_2"/>
    <trip id="2_334" depart="934.00" from="road_3_0_1" to="road_2_4_1"/>
    <trip id="2_335" depart="935.00" from="road_2_5_3" to="road_4_3_0"/>
    <trip id="2_336" depart="936.00" from="road_5_4_2" to="road_1_4_1"/>
    <trip id="2_337" depart="937.00" from="road_3_5_3" to="road_3_4_1"/>
    <trip id="2_338" depart="938.00" from="road_4_5_3" to="road_4_4_1"/>
    <trip id="2_339" depart="939.00" from="road_0_4_0" to="road_1_3_2"/>
    <trip id="2_340" depart="940.00" from="road_4_0_1" to="road_1_2_2"/>
    <trip id="2_341" depart="941.00" from="road_0_3_0" to="road_1_1_3"/>
    <trip id="2_342" depart="942.00" from="road_0_1_0" to="road_2_4_1"/>
    <trip id="2_343" depart="943.00" from="road_3_5_3" to="road_1_4_1"/>
    <trip id="2_344" depart="944.00" from="road_0_4_0" to="road_4_1_3"/>
    <trip id="2_345" depart="945.00" from="road_4_5_3" to="road_2_4_1"/>
    <trip id="2_346" depart="946.00" from="road_4_0_1" to="road_4_4_0"/>
    <trip id="2_347" depart="947.00" from="road_5_1_2" to="road_3_4_2"/>
    <trip id="2_348" depart="948.00" from="road_4_0_1" to="road_4_4_0"/>
    <trip id="2_349" depart="949.00" from="road_2_0_1" to="road_3_1_3"/>
    <trip id="2_350" depart="950.00" from="road_4_0_1" to="road_4_4_0"/>
    <trip id="2_351" depart="951.00" from="road_5_2_2" to="road_1_1_3"/>
    <trip id="2_352" depart="952.00" from="road_0_3_0" to="road_1_4_1"/>
    <trip id="2_353" depart="953.00" from="road_4_5_3" to="road_3_4_1"/>
    <trip id="2_354" depart="954.00" from="road_1_0_1" to="road_1_1_3"/>
    <trip id="2_355" depart="955.00" from="road_4_5_3" to="road_4_1_3"/>
    <trip id="2_356" depart="956.00" from="road_5_4_2" to="road_3_1_3"/>
    <trip id="2_357" depart="957.00" from="road_2_5_3" to="road_1_1_3"/>
    <trip id="2_358" depart="958.00" from="road_0_1_0" to="road_2_1_3"/>
    <trip id="2_359" depart="959.00" from="road_1_5_3" to="road_1_4_1"/>
    <trip id="2_360" depart="960.00" from="road_0_2_0" to="road_4_4_1"/>
    <trip id="2_361" depart="961.00" from="road_5_2_2" to="road_3_4_1"/>
    <trip id="2_362" depart="962.00" from="road_5_4_2" to="road_4_4_1"/>
    <trip id="2_363" depart="963.00" from="road_4_0_1" to="road_1_4_1"/>
    <trip id="2_364" depart="964.00" from="road_0_1_0" to="road_4_2_0"/>
    <trip id="2_365" depart="965.00" from="road_2_5_3" to="road_4_1_0"/>
    <trip id="2_366" depart="966.00" from="road_5_3_2" to="road_1_2_2"/>
    <trip id="2_367" depart="967.00" from="road_3_5_3" to="road_4_1_0"/>
    <trip id="2_368" depart="968.00" from="road_2_5_3" to="road_1_1_3"/>
    <trip id="2_369" depart="969.00" from="road_1_5_3" to="road_1_4_2"/>
    <trip id="2_370" depart="970.00" from="road_4_0_1" to="road_4_3_0"/>
    <trip id="2_371" depart="971.00" from="road_1_5_3" to="road_4_1_3"/>
    <trip id="2_372" depart="972.00" from="road_1_0_1" to="road_4_4_1"/>
    <trip id="2_373" depart="973.00" from="road_5_2_2" to="road_3_1_3"/>
    <trip id="2_374" depart="974.00" from="road_2_5_3" to="road_1_4_2"/>
    <trip id="2_375" depart="975.00" from="road_1_5_3" to="road_4_4_1"/>
    <trip id="2_376" depart="976.00" from="road_2_0_1" to="road_3_1_3"/>
    <trip id="2_377" depart="977.00" from="road_5_4_2" to="road_4_1_0"/>
    <trip id="2_378" depart="978.00" from="road_3_0_1" to="road_2_1_3"/>
    <trip id="2_379" depart="979.00" from="road_0_4_0" to="road_1_4_2"/>
    <trip id="2_380" depart="980.00" from="road_5_1_2" to="road_4_1_0"/>
    <trip id="2_381" depart="981.00" from="road_5_1_2" to="road_1_3_2"/>
    <trip id="2_382" depart="982.00" from="road_3_0_1" to="road_4_4_0"/>
    <trip id="2_383" depart="983.00" from="road_2_5_3" to="road_4_1_3"/>
    <trip id="2_384" depart="984.00" from="road_0_2_0" to="road_4_4_1"/>
    <trip id="2_385" depart="985.00" from="road_3_5_3" to="road_1_3_2"/>
    <trip id="2_386" depart="986.00" from="road_0_3_0" to="road_3_1_3"/>
    <trip id="2_387" depart="987.00" from="road_3_0_1" to="road_1_1_3"/>
    <trip id="2_388" depart="988.00" from="road_5_4_2" to="road_4_4_0"/>
    <trip id="2_389" depart="989.00" from="road_2_5_3" to="road_1_1_3"/>
    <trip id="2_390" depart="990.00" from="road_5_2_2" to="road_2_4_1"/>
    <trip id="2_391" depart="991.00" from="road_4_5_3" to="road_3_1_3"/>
    <trip id="2_392" depart="992.00" from="road_1_0_1" to="road_4_3_0"/>
    <trip id="2_393" depart="993.00" from="road_5_4_2" to="road_1_3_2"/>
    <trip id="2_394" depart="994.00" from="road_3_0_1" to="road_2_1_3"/>
    <trip id="2_395" depart="995.00" from="road_5_3_2" to="road_3_1_3"/>
    <trip id="2_396" depart="996.00" from="road_5_3_2" to="road_4_3_0"/>
    <trip id="2_397" depart="997.00" from="road_1_0_1" to="road_4_2_0"/>
    <trip id="2_398" depart="998.00" from="road_2_0_1" to="road_4_4_0"/>
    <trip id="2_399" depart="999.00" from="road_3_0_1" to="road_4_3_0"/>
    <trip id="2_400" depart="1000.00" from="road_1_0_1" to="road_1_4_1"/>