<?xml version="1.0" encoding="UTF-8"?>
<!-- generated on 2024-10-12 18:03:32.523229 by randomTrips.py v1_11_0+0000-d32ff7d52a3
  options: -n 4_Phase.net.xml -b 0 -e 1200 <doubleminus>period 2 <doubleminus>fringe-factor 7200 -L -o uniform_11.trips.xml
-->
<routes xmlns:xsi="http://www.w3.org/2001/XMLSchema-instance" xsi:noNamespaceSchemaLocation="http://sumo.dlr.de/xsd/routes_file.xsd">
    <trip id="1.0" depart="0.00" from="road_4_0_1" to="road_1_1_2"/>
    <trip id="1.1" depart="2.00" from="road_1_0_1" to="road_1_3_2"/>
    <trip id="1.2" depart="4.00" from="road_4_5_3" to="road_4_1_0"/>
    <trip id="1.3" depart="6.00" from="road_5_3_2" to="road_1_1_3"/>
    <trip id="1.4" depart="8.00" from="road_2_0_1" to="road_1_1_2"/>
    <trip id="1.5" depart="10.00" from="road_0_4_0" to="road_3_1_3"/>
    <trip id="1.6" depart="12.00" from="road_0_1_0" to="road_1_3_2"/>
    <trip id="1.7" depart="14.00" from="road_4_0_1" to="road_3_1_3"/>
    <trip id="1.8" depart="16.00" from="road_0_4_0" to="road_3_4_1"/>
    <trip id="1.9" depart="18.00" from="road_5_1_2" to="road_1_1_2"/>
    <trip id="1.10" depart="20.00" from="road_5_1_2" to="road_4_1_3"/>
    <trip id="1.11" depart="22.00" from="road_1_5_3" to="road_1_2_2"/>
    <trip id="1.12" depart="24.00" from="road_5_4_2" to="road_1_4_2"/>
    <trip id="1.13" depart="26.00" from="road_0_2_0" to="road_1_1_3"/>
    <trip id="1.14" depart="28.00" from="road_5_2_2" to="road_3_4_1"/>
    <trip id="1.15" depart="30.00" from="road_5_1_2" to="road_4_1_3"/>
    <trip id="1.16" depart="32.00" from="road_3_0_1" to="road_4_4_1"/>
    <trip id="1.17" depart="34.00" from="road_2_0_1" to="road_3_1_3"/>
    <trip id="1.18" depart="36.00" from="road_5_2_2" to="road_3_4_1"/>
    <trip id="1.19" depart="38.00" from="road_5_2_2" to="road_3_4_1"/>
    <trip id="1.20" depart="40.00" from="road_4_5_3" to="road_1_1_2"/>
    <trip id="1.21" depart="42.00" from="road_0_4_0" to="road_1_4_1"/>
    <trip id="1.22" depart="44.00" from="road_0_2_0" to="road_1_3_2"/>
    <trip id="1.23" depart="46.00" from="road_0_2_0" to="road_1_4_1"/>
    <trip id="1.24" depart="48.00" from="road_4_0_1" to="road_1_4_2"/>
    <trip id="1.25" depart="50.00" from="road_1_5_3" to="road_1_3_2"/>
    <trip id="1.26" depart="52.00" from="road_1_0_1" to="road_4_4_0"/>
    <trip id="1.27" depart="54.00" from="road_4_0_1" to="road_3_4_1"/>
    <trip id="1.28" depart="56.00" from="road_0_3_0" to="road_4_1_3"/>
    <trip id="1.29" depart="58.00" from="road_0_3_0" to="road_2_1_3"/>
    <trip id="1.30" depart="60.00" from="road_5_4_2" to="road_4_1_0"/>
    <trip id="1.31" depart="62.00" from="road_3_0_1" to="road_4_1_0"/>
    <trip id="1.32" depart="64.00" from="road_5_2_2" to="road_4_2_0"/>
    <trip id="1.33" depart="66.00" from="road_0_4_0" to="road_1_1_2"/>
    <trip id="1.34" depart="68.00" from="road_1_5_3" to="road_1_4_1"/>
    <trip id="1.35" depart="70.00" from="road_0_4_0" to="road_4_4_1"/>
    <trip id="1.36" depart="72.00" from="road_5_3_2" to="road_1_4_2"/>
    <trip id="1.37" depart="74.00" from="road_4_0_1" to="road_2_1_3"/>
    <trip id="1.38" depart="76.00" from="road_5_3_2" to="road_2_4_1"/>
    <trip id="1.39" depart="78.00" from="road_1_0_1" to="road_1_3_2"/>
    <trip id="1.40" depart="80.00" from="road_3_0_1" to="road_1_4_1"/>
    <trip id="1.41" depart="82.00" from="road_3_5_3" to="road_4_4_0"/>
    <trip id="1.42" depart="84.00" from="road_2_0_1" to="road_1_3_2"/>
    <trip id="1.43" depart="86.00" from="road_5_4_2" to="road_3_1_3"/>
    <trip id="1.44" depart="88.00" from="road_0_2_0" to="road_1_1_2"/>
    <trip id="1.45" depart="90.00" from="road_0_2_0" to="road_4_1_0"/>
    <trip id="1.46" depart="92.00" from="road_5_1_2" to="road_2_1_3"/>
    <trip id="1.47" depart="94.00" from="road_0_2_0" to="road_2_1_3"/>
    <trip id="1.48" depart="96.00" from="road_5_4_2" to="road_3_1_3"/>
    <trip id="1.49" depart="98.00" from="road_5_4_2" to="road_4_3_0"/>
    <trip id="1.50" depart="100.00" from="road_0_1_0" to="road_4_1_3"/>
    <trip id="1.51" depart="102.00" from="road_4_0_1" to="road_3_1_3"/>
    <trip id="1.52" depart="104.00" from="road_1_0_1" to="road_4_1_0"/>
    <trip id="1.53" depart="106.00" from="road_0_2_0" to="road_2_1_3"/>
    <trip id="1.54" depart="108.00" from="road_2_5_3" to="road_4_4_1"/>
    <trip id="1.55" depart="110.00" from="road_5_3_2" to="road_1_4_1"/>
    <trip id="1.56" depart="112.00" from="road_3_0_1" to="road_1_2_2"/>
    <trip id="1.57" depart="114.00" from="road_5_3_2" to="road_4_3_0"/>
    <trip id="1.58" depart="116.00" from="road_1_0_1" to="road_4_1_0"/>
    <trip id="1.59" depart="118.00" from="road_3_5_3" to="road_1_2_2"/>
    <trip id="1.60" depart="120.00" from="road_5_1_2" to="road_3_1_3"/>
    <trip id="1.61" depart="122.00" from="road_5_1_2" to="road_3_1_3"/>
    <trip id="1.62" depart="124.00" from="road_0_1_0" to="road_1_4_2"/>
    <trip id="1.63" depart="126.00" from="road_0_1_0" to="road_4_4_0"/>
    <trip id="1.64" depart="128.00" from="road_5_3_2" to="road_4_3_0"/>
    <trip id="1.65" depart="130.00" from="road_1_0_1" to="road_1_1_2"/>
    <trip id="1.66" depart="132.00" from="road_5_3_2" to="road_4_4_1"/>
    <trip id="1.67" depart="134.00" from="road_0_2_0" to="road_2_4_1"/>
    <trip id="1.68" depart="136.00" from="road_0_2_0" to="road_4_2_0"/>
    <trip id="1.69" depart="138.00" from="road_5_1_2" to="road_1_2_2"/>
    <trip id="1.70" depart="140.00" from="road_2_5_3" to="road_3_1_3"/>
    <trip id="1.71" depart="142.00" from="road_1_0_1" to="road_4_3_0"/>
    <trip id="1.72" depart="144.00" from="road_2_0_1" to="road_1_3_2"/>
    <trip id="1.73" depart="146.00" from="road_3_0_1" to="road_4_1_3"/>
    <trip id="1.74" depart="148.00" from="road_0_4_0" to="road_1_4_1"/>
    <trip id="1.75" depart="150.00" from="road_5_4_2" to="road_4_1_0"/>
    <trip id="1.76" depart="152.00" from="road_2_5_3" to="road_3_1_3"/>
    <trip id="1.77" depart="154.00" from="road_0_2_0" to="road_1_3_2"/>
    <trip id="1.78" depart="156.00" from="road_1_5_3" to="road_3_4_1"/>
    <trip id="1.79" depart="158.00" from="road_0_4_0" to="road_1_3_2"/>
    <trip id="1.80" depart="160.00" from="road_0_2_0" to="road_4_1_0"/>
    <trip id="1.81" depart="162.00" from="road_0_4_0" to="road_4_4_0"/>
    <trip id="1.82" depart="164.00" from="road_5_2_2" to="road_1_1_3"/>
    <trip id="1.83" depart="166.00" from="road_0_4_0" to="road_4_1_0"/>
    <trip id="1.84" depart="168.00" from="road_0_4_0" to="road_1_2_2"/>
    <trip id="1.85" depart="170.00" from="road_5_3_2" to="road_3_4_1"/>
    <trip id="1.86" depart="172.00" from="road_2_5_3" to="road_4_2_0"/>
    <trip id="1.87" depart="174.00" from="road_5_1_2" to="road_1_3_2"/>
    <trip id="1.88" depart="176.00" from="road_0_2_0" to="road_2_1_3"/>
    <trip id="1.89" depart="178.00" from="road_2_0_1" to="road_2_4_1"/>
    <trip id="1.90" depart="180.00" from="road_4_5_3" to="road_4_1_0"/>
    <trip id="1.91" depart="182.00" from="road_5_4_2" to="road_1_1_3"/>
    <trip id="1.92" depart="184.00" from="road_2_0_1" to="road_1_4_2"/>
    <trip id="1.93" depart="186.00" from="road_5_2_2" to="road_1_3_2"/>
    <trip id="1.94" depart="188.00" from="road_0_4_0" to="road_2_4_1"/>
    <trip id="1.95" depart="190.00" from="road_2_0_1" to="road_1_4_1"/>
    <trip id="1.96" depart="192.00" from="road_0_4_0" to="road_4_4_0"/>
    <trip id="1.97" depart="194.00" from="road_2_5_3" to="road_4_3_0"/>
    <trip id="1.98" depart="196.00" from="road_3_0_1" to="road_1_1_2"/>
    <trip id="1.99" depart="198.00" from="road_5_4_2" to="road_4_3_0"/>
    <trip id="1.100" depart="200.00" from="road_5_4_2" to="road_4_4_0"/>
    <trip id="1.101" depart="202.00" from="road_5_2_2" to="road_1_2_2"/>
    <trip id="1.102" depart="204.00" from="road_2_5_3" to="road_1_3_2"/>
    <trip id="1.103" depart="206.00" from="road_2_0_1" to="road_1_1_2"/>
    <trip id="1.104" depart="208.00" from="road_2_0_1" to="road_4_4_1"/>
    <trip id="1.105" depart="210.00" from="road_1_0_1" to="road_4_2_0"/>
    <trip id="1.106" depart="212.00" from="road_2_5_3" to="road_2_1_3"/>
    <trip id="1.107" depart="214.00" from="road_5_4_2" to="road_4_4_1"/>
    <trip id="1.108" depart="216.00" from="road_3_0_1" to="road_4_1_3"/>
    <trip id="1.109" depart="218.00" from="road_0_3_0" to="road_1_4_1"/>
    <trip id="1.110" depart="220.00" from="road_5_4_2" to="road_3_4_1"/>
    <trip id="1.111" depart="222.00" from="road_3_0_1" to="road_4_1_3"/>
    <trip id="1.112" depart="224.00" from="road_0_1_0" to="road_3_4_1"/>
    <trip id="1.113" depart="226.00" from="road_3_0_1" to="road_4_3_0"/>
    <trip id="1.114" depart="228.00" from="road_0_3_0" to="road_4_4_1"/>
    <trip id="1.115" depart="230.00" from="road_0_2_0" to="road_1_2_2"/>
    <trip id="1.116" depart="232.00" from="road_3_5_3" to="road_4_1_0"/>
    <trip id="1.117" depart="234.00" from="road_0_4_0" to="road_1_1_3"/>
    <trip id="1.118" depart="236.00" from="road_5_3_2" to="road_1_3_2"/>
    <trip id="1.119" depart="238.00" from="road_3_5_3" to="road_3_4_1"/>
    <trip id="1.120" depart="240.00" from="road_2_0_1" to="road_3_4_1"/>
    <trip id="1.121" depart="242.00" from="road_3_0_1" to="road_4_4_0"/>
    <trip id="1.122" depart="244.00" from="road_0_4_0" to="road_4_1_3"/>
    <trip id="1.123" depart="246.00" from="road_0_4_0" to="road_2_1_3"/>
    <trip id="1.124" depart="248.00" from="road_4_0_1" to="road_1_4_1"/>
    <trip id="1.125" depart="250.00" from="road_1_5_3" to="road_4_2_0"/>
    <trip id="1.126" depart="252.00" from="road_0_2_0" to="road_2_4_1"/>
    <trip id="1.127" depart="254.00" from="road_5_4_2" to="road_4_4_1"/>
    <trip id="1.128" depart="256.00" from="road_0_2_0" to="road_1_3_2"/>
    <trip id="1.129" depart="258.00" from="road_1_0_1" to="road_4_4_0"/>
    <trip id="1.130" depart="260.00" from="road_5_3_2" to="road_4_4_0"/>
    <trip id="1.131" depart="262.00" from="road_1_5_3" to="road_1_2_2"/>
    <trip id="1.132" depart="264.00" from="road_5_2_2" to="road_4_1_3"/>
    <trip id="1.133" depart="266.00" from="road_3_5_3" to="road_4_4_1"/>
    <trip id="1.134" depart="268.00" from="road_4_0_1" to="road_1_1_2"/>
    <trip id="1.135" depart="270.00" from="road_5_2_2" to="road_1_4_1"/>
    <trip id="1.136" depart="272.00" from="road_4_0_1" to="road_4_4_1"/>
    <trip id="1.137" depart="274.00" from="road_0_3_0" to="road_1_1_3"/>
    <trip id="1.138" depart="276.00" from="road_0_2_0" to="road_3_1_3"/>
    <trip id="1.139" depart="278.00" from="road_1_0_1" to="road_3_4_1"/>
    <trip id="1.140" depart="280.00" from="road_4_5_3" to="road_1_3_2"/>
    <trip id="1.141" depart="282.00" from="road_4_0_1" to="road_1_4_1"/>
    <trip id="1.142" depart="284.00" from="road_2_5_3" to="road_4_4_0"/>
    <trip id="1.143" depart="286.00" from="road_5_2_2" to="road_1_1_3"/>
    <trip id="1.144" depart="288.00" from="road_2_0_1" to="road_1_4_1"/>
    <trip id="1.145" depart="290.00" from="road_0_1_0" to="road_4_2_0"/>
    <trip id="1.146" depart="292.00" from="road_4_0_1" to="road_1_4_1"/>
    <trip id="1.147" depart="294.00" from="road_4_5_3" to="road_3_1_3"/>
    <trip id="1.148" depart="296.00" from="road_2_0_1" to="road_1_1_2"/>
    <trip id="1.149" depart="298.00" from="road_0_2_0" to="road_4_4_0"/>
    <trip id="1.150" depart="300.00" from="road_5_3_2" to="road_3_1_3"/>
    <trip id="1.151" depart="302.00" from="road_5_2_2" to="road_3_4_1"/>
    <trip id="1.152" depart="304.00" from="road_0_3_0" to="road_1_2_2"/>
    <trip id="1.153" depart="306.00" from="road_1_0_1" to="road_4_4_0"/>
    <trip id="1.154" depart="308.00" from="road_5_1_2" to="road_4_3_0"/>
    <trip id="1.155" depart="310.00" from="road_5_3_2" to="road_1_3_2"/>
    <trip id="1.156" depart="312.00" from="road_0_4_0" to="road_1_1_3"/>
    <trip id="1.157" depart="314.00" from="road_5_1_2" to="road_4_4_0"/>
    <trip id="1.158" depart="316.00" from="road_2_0_1" to="road_3_4_1"/>
    <trip id="1.159" depart="318.00" from="road_0_3_0" to="road_4_4_0"/>
    <trip id="1.160" depart="320.00" from="road_5_2_2" to="road_4_4_1"/>
    <trip id="1.161" depart="322.00" from="road_5_1_2" to="road_4_4_0"/>
    <trip id="1.162" depart="324.00" from="road_0_1_0" to="road_4_1_3"/>
    <trip id="1.163" depart="326.00" from="road_1_5_3" to="road_4_4_0"/>
    <trip id="1.164" depart="328.00" from="road_5_1_2" to="road_4_3_0"/>
    <trip id="1.165" depart="330.00" from="road_5_1_2" to="road_1_4_1"/>
    <trip id="1.166" depart="332.00" from="road_5_1_2" to="road_1_1_3"/>
    <trip id="1.167" depart="334.00" from="road_5_2_2" to="road_4_3_0"/>
    <trip id="1.168" depart="336.00" from="road_0_4_0" to="road_4_3_0"/>
    <trip id="1.169" depart="338.00" from="road_2_5_3" to="road_1_4_1"/>
    <trip id="1.170" depart="340.00" from="road_5_1_2" to="road_1_3_2"/>
    <trip id="1.171" depart="342.00" from="road_0_1_0" to="road_1_3_2"/>
    <trip id="1.172" depart="344.00" from="road_1_5_3" to="road_4_3_0"/>
    <trip id="1.173" depart="346.00" from="road_5_4_2" to="road_1_4_1"/>
    <trip id="1.174" depart="348.00" from="road_4_0_1" to="road_2_1_3"/>
    <trip id="1.175" depart="350.00" from="road_5_4_2" to="road_3_1_3"/>
    <trip id="1.176" depart="352.00" from="road_5_4_2" to="road_1_1_3"/>
    <trip id="1.177" depart="354.00" from="road_5_4_2" to="road_1_2_2"/>
    <trip id="1.178" depart="356.00" from="road_5_4_2" to="road_1_4_1"/>
    <trip id="1.179" depart="358.00" from="road_0_2_0" to="road_2_1_3"/>
    <trip id="1.180" depart="360.00" from="road_4_5_3" to="road_1_4_2"/>
    <trip id="1.181" depart="362.00" from="road_3_5_3" to="road_3_1_3"/>
    <trip id="1.182" depart="364.00" from="road_2_0_1" to="road_3_4_1"/>
    <trip id="1.183" depart="366.00" from="road_1_0_1" to="road_4_1_3"/>
    <trip id="1.184" depart="368.00" from="road_0_1_0" to="road_4_4_0"/>
    <trip id="1.185" depart="370.00" from="road_3_0_1" to="road_4_1_3"/>
    <trip id="1.186" depart="372.00" from="road_4_5_3" to="road_4_1_0"/>
    <trip id="1.187" depart="374.00" from="road_1_5_3" to="road_1_1_3"/>
    <trip id="1.188" depart="376.00" from="road_4_0_1" to="road_1_4_2"/>
    <trip id="1.189" depart="378.00" from="road_1_5_3" to="road_4_3_0"/>
    <trip id="1.190" depart="380.00" from="road_4_5_3" to="road_1_4_1"/>
    <trip id="1.191" depart="382.00" from="road_1_0_1" to="road_2_1_3"/>
    <trip id="1.192" depart="384.00" from="road_2_0_1" to="road_1_4_1"/>
    <trip id="1.193" depart="386.00" from="road_0_3_0" to="road_2_1_3"/>
    <trip id="1.194" depart="388.00" from="road_5_4_2" to="road_4_1_0"/>
    <trip id="1.195" depart="390.00" from="road_5_3_2" to="road_3_4_1"/>
    <trip id="1.196" depart="392.00" from="road_1_0_1" to="road_3_1_3"/>
    <trip id="1.197" depart="394.00" from="road_0_1_0" to="road_1_4_1"/>
    <trip id="1.198" depart="396.00" from="road_2_0_1" to="road_3_4_1"/>
    <trip id="1.199" depart="398.00" from="road_4_0_1" to="road_2_4_1"/>
    <trip id="1.200" depart="400.00" from="road_2_5_3" to="road_1_3_2"/>
    <trip id="1.201" depart="402.00" from="road_2_5_3" to="road_4_4_0"/>
    <trip id="1.202" depart="404.00" from="road_5_1_2" to="road_1_2_2"/>
    <trip id="1.203" depart="406.00" from="road_0_2_0" to="road_3_1_3"/>
    <trip id="1.204" depart="408.00" from="road_4_0_1" to="road_1_4_2"/>
    <trip id="1.205" depart="410.00" from="road_5_2_2" to="road_4_2_0"/>
    <trip id="1.206" depart="412.00" from="road_4_0_1" to="road_1_3_2"/>
    <trip id="1.207" depart="414.00" from="road_0_4_0" to="road_1_1_2"/>
    <trip id="1.208" depart="416.00" from="road_0_4_0" to="road_2_4_1"/>
    <trip id="1.209" depart="418.00" from="road_5_2_2" to="road_1_1_3"/>
    <trip id="1.210" depart="420.00" from="road_2_0_1" to="road_4_1_0"/>
    <trip id="1.211" depart="422.00" from="road_0_4_0" to="road_4_1_3"/>
    <trip id="1.212" depart="424.00" from="road_2_5_3" to="road_1_3_2"/>
    <trip id="1.213" depart="426.00" from="road_4_0_1" to="road_1_1_2"/>
    <trip id="1.214" depart="428.00" from="road_5_1_2" to="road_4_2_0"/>
    <trip id="1.215" depart="430.00" from="road_0_2_0" to="road_2_1_3"/>
    <trip id="1.216" depart="432.00" from="road_0_3_0" to="road_4_4_1"/>
    <trip id="1.217" depart="434.00" from="road_3_0_1" to="road_1_1_2"/>
    <trip id="1.218" depart="436.00" from="road_0_4_0" to="road_4_3_0"/>
    <trip id="1.219" depart="438.00" from="road_2_5_3" to="road_4_2_0"/>
    <trip id="1.220" depart="440.00" from="road_4_0_1" to="road_4_4_1"/>
    <trip id="1.221" depart="442.00" from="road_3_5_3" to="road_4_4_1"/>
    <trip id="1.222" depart="444.00" from="road_5_3_2" to="road_3_4_1"/>
    <trip id="1.223" depart="446.00" from="road_4_5_3" to="road_3_1_3"/>
    <trip id="1.224" depart="448.00" from="road_5_2_2" to="road_3_1_3"/>
    <trip id="1.225" depart="450.00" from="road_5_3_2" to="road_4_1_3"/>
    <trip id="1.226" depart="452.00" from="road_2_5_3" to="road_1_4_1"/>
    <trip id="1.227" depart="454.00" from="road_0_4_0" to="road_4_1_0"/>
    <trip id="1.228" depart="456.00" from="road_5_1_2" to="road_3_1_3"/>
    <trip id="1.229" depart="458.00" from="road_4_0_1" to="road_1_4_1"/>
    <trip id="1.230" depart="460.00" from="road_0_2_0" to="road_1_4_1"/>
    <trip id="1.231" depart="462.00" from="road_1_0_1" to="road_1_4_2"/>
    <trip id="1.232" depart="464.00" from="road_3_0_1" to="road_1_2_2"/>
    <trip id="1.233" depart="466.00" from="road_0_4_0" to="road_4_1_3"/>
    <trip id="1.234" depart="468.00" from="road_4_5_3" to="road_1_1_3"/>
    <trip id="1.235" depart="470.00" from="road_2_0_1" to="road_3_1_3"/>
    <trip id="1.236" depart="472.00" from="road_2_0_1" to="road_1_3_2"/>
    <trip id="1.237" depart="474.00" from="road_2_0_1" to="road_4_4_0"/>
    <trip id="1.238" depart="476.00" from="road_3_5_3" to="road_4_1_3"/>
    <trip id="1.239" depart="478.00" from="road_5_2_2" to="road_4_2_0"/>
    <trip id="1.240" depart="480.00" from="road_2_0_1" to="road_1_1_2"/>
    <trip id="1.241" depart="482.00" from="road_1_5_3" to="road_4_2_0"/>
    <trip id="1.242" depart="484.00" from="road_5_2_2" to="road_4_4_1"/>
    <trip id="1.243" depart="486.00" from="road_2_0_1" to="road_4_1_3"/>
    <trip id="1.244" depart="488.00" from="road_3_0_1" to="road_3_4_1"/>
    <trip id="1.245" depart="490.00" from="road_0_4_0" to="road_1_3_2"/>
    <trip id="1.246" depart="492.00" from="road_2_0_1" to="road_1_1_2"/>
    <trip id="1.247" depart="494.00" from="road_1_5_3" to="road_4_1_0"/>
    <trip id="1.248" depart="496.00" from="road_2_0_1" to="road_1_2_2"/>
    <trip id="1.249" depart="498.00" from="road_2_5_3" to="road_1_2_2"/>
    <trip id="1.250" depart="500.00" from="road_3_5_3" to="road_1_1_2"/>
    <trip id="1.251" depart="502.00" from="road_2_0_1" to="road_3_4_1"/>
    <trip id="1.252" depart="504.00" from="road_0_1_0" to="road_4_1_0"/>
    <trip id="1.253" depart="506.00" from="road_0_3_0" to="road_2_4_1"/>
    <trip id="1.254" depart="508.00" from="road_0_1_0" to="road_2_1_3"/>
    <trip id="1.255" depart="510.00" from="road_0_4_0" to="road_1_4_2"/>
    <trip id="1.256" depart="512.00" from="road_5_1_2" to="road_2_1_3"/>
    <trip id="1.257" depart="514.00" from="road_5_1_2" to="road_4_3_0"/>
    <trip id="1.258" depart="516.00" from="road_1_0_1" to="road_1_1_3"/>
    <trip id="1.259" depart="518.00" from="road_0_1_0" to="road_3_1_3"/>
    <trip id="1.260" depart="520.00" from="road_5_4_2" to="road_1_4_2"/>
    <trip id="1.261" depart="522.00" from="road_4_0_1" to="road_4_2_0"/>
    <trip id="1.262" depart="524.00" from="road_4_0_1" to="road_4_2_0"/>
    <trip id="1.263" depart="526.00" from="road_5_4_2" to="road_1_3_2"/>
    <trip id="1.264" depart="528.00" from="road_0_1_0" to="road_1_2_2"/>
    <trip id="1.265" depart="530.00" from="road_0_3_0" to="road_4_1_0"/>
    <trip id="1.266" depart="532.00" from="road_3_5_3" to="road_1_3_2"/>
    <trip id="1.267" depart="534.00" from="road_4_5_3" to="road_4_2_0"/>
    <trip id="1.268" depart="536.00" from="road_0_3_0" to="road_3_4_1"/>
    <trip id="1.269" depart="538.00" from="road_4_5_3" to="road_1_1_3"/>
    <trip id="1.270" depart="540.00" from="road_5_2_2" to="road_4_4_1"/>
    <trip id="1.271" depart="542.00" from="road_0_2_0" to="road_1_1_2"/>
    <trip id="1.272" depart="544.00" from="road_1_0_1" to="road_4_1_0"/>
    <trip id="1.273" depart="546.00" from="road_5_4_2" to="road_2_1_3"/>
    <trip id="1.274" depart="548.00" from="road_4_5_3" to="road_1_1_3"/>
    <trip id="1.275" depart="550.00" from="road_4_5_3" to="road_4_1_0"/>
    <trip id="1.276" depart="552.00" from="road_0_2_0" to="road_4_2_0"/>
    <trip id="1.277" depart="554.00" from="road_5_2_2" to="road_3_4_1"/>
    <trip id="1.278" depart="556.00" from="road_0_2_0" to="road_4_4_1"/>
    <trip id="1.279" depart="558.00" from="road_5_1_2" to="road_1_4_2"/>
    <trip id="1.280" depart="560.00" from="road_2_0_1" to="road_1_4_2"/>
    <trip id="1.281" depart="562.00" from="road_3_0_1" to="road_1_4_2"/>
    <trip id="1.282" depart="564.00" from="road_5_2_2" to="road_4_3_0"/>
    <trip id="1.283" depart="566.00" from="road_0_2_0" to="road_4_4_1"/>
    <trip id="1.284" depart="568.00" from="road_4_0_1" to="road_4_3_0"/>
    <trip id="1.285" depart="570.00" from="road_4_5_3" to="road_2_1_3"/>
    <trip id="1.286" depart="572.00" from="road_4_5_3" to="road_4_4_1"/>
    <trip id="1.287" depart="574.00" from="road_1_0_1" to="road_4_2_0"/>
    <trip id="1.288" depart="576.00" from="road_3_0_1" to="road_2_4_1"/>
    <trip id="1.289" depart="578.00" from="road_2_0_1" to="road_4_1_3"/>
    <trip id="1.290" depart="580.00" from="road_1_0_1" to="road_4_3_0"/>
    <trip id="1.291" depart="582.00" from="road_5_2_2" to="road_1_1_3"/>
    <trip id="1.292" depart="584.00" from="road_5_3_2" to="road_1_3_2"/>
    <trip id="1.293" depart="586.00" from="road_2_5_3" to="road_3_4_1"/>
    <trip id="1.294" depart="588.00" from="road_2_0_1" to="road_1_1_2"/>
    <trip id="1.295" depart="590.00" from="road_5_2_2" to="road_1_2_2"/>
    <trip id="1.296" depart="592.00" from="road_0_4_0" to="road_4_2_0"/>
    <trip id="1.297" depart="594.00" from="road_1_5_3" to="road_4_4_0"/>
    <trip id="1.298" depart="596.00" from="road_4_5_3" to="road_1_4_1"/>
    <trip id="1.299" depart="598.00" from="road_0_1_0" to="road_4_4_1"/>
    <trip id="1.300" depart="600.00" from="road_0_2_0" to="road_4_1_3"/>
    <trip id="1.301" depart="602.00" from="road_2_5_3" to="road_4_2_0"/>
    <trip id="1.302" depart="604.00" from="road_4_5_3" to="road_4_1_0"/>
    <trip id="1.303" depart="606.00" from="road_2_5_3" to="road_4_2_0"/>
    <trip id="1.304" depart="608.00" from="road_0_2_0" to="road_1_3_2"/>
    <trip id="1.305" depart="610.00" from="road_4_5_3" to="road_1_4_1"/>
    <trip id="1.306" depart="612.00" from="road_3_5_3" to="road_2_4_1"/>
    <trip id="1.307" depart="614.00" from="road_3_0_1" to="road_2_1_3"/>
    <trip id="1.308" depart="616.00" from="road_4_5_3" to="road_1_4_2"/>
    <trip id="1.309" depart="618.00" from="road_4_5_3" to="road_1_4_1"/>
    <trip id="1.310" depart="620.00" from="road_1_0_1" to="road_1_1_3"/>
    <trip id="1.311" depart="622.00" from="road_0_4_0" to="road_1_1_3"/>
    <trip id="1.312" depart="624.00" from="road_3_0_1" to="road_4_2_0"/>
    <trip id="1.313" depart="626.00" from="road_0_3_0" to="road_1_3_2"/>
    <trip id="1.314" depart="628.00" from="road_2_5_3" to="road_4_1_3"/>
    <trip id="1.315" depart="630.00" from="road_5_4_2" to="road_3_1_3"/>
    <trip id="1.316" depart="632.00" from="road_1_0_1" to="road_1_1_3"/>
    <trip id="1.317" depart="634.00" from="road_0_4_0" to="road_1_3_2"/>
    <trip id="1.318" depart="636.00" from="road_0_3_0" to="road_1_1_2"/>
    <trip id="1.319" depart="638.00" from="road_3_0_1" to="road_1_4_1"/>
    <trip id="1.320" depart="640.00" from="road_5_4_2" to="road_3_1_3"/>
    <trip id="1.321" depart="642.00" from="road_4_5_3" to="road_1_2_2"/>
    <trip id="1.322" depart="644.00" from="road_5_2_2" to="road_2_4_1"/>
    <trip id="1.323" depart="646.00" from="road_5_2_2" to="road_3_4_1"/>
    <trip id="1.324" depart="648.00" from="road_2_5_3" to="road_2_4_1"/>
    <trip id="1.325" depart="650.00" from="road_0_3_0" to="road_1_1_2"/>
    <trip id="1.326" depart="652.00" from="road_5_4_2" to="road_2_4_1"/>
    <trip id="1.327" depart="654.00" from="road_5_2_2" to="road_2_1_3"/>
    <trip id="1.328" depart="656.00" from="road_0_2_0" to="road_4_1_0"/>
    <trip id="1.329" depart="658.00" from="road_0_1_0" to="road_1_2_2"/>
    <trip id="1.330" depart="660.00" from="road_3_5_3" to="road_1_4_1"/>
    <trip id="1.331" depart="662.00" from="road_5_4_2" to="road_1_1_3"/>
    <trip id="1.332" depart="664.00" from="road_5_1_2" to="road_3_4_1"/>
    <trip id="1.333" depart="666.00" from="road_5_1_2" to="road_1_3_2"/>
    <trip id="1.334" depart="668.00" from="road_3_0_1" to="road_2_4_1"/>
    <trip id="1.335" depart="670.00" from="road_2_5_3" to="road_4_3_0"/>
    <trip id="1.336" depart="672.00" from="road_5_4_2" to="road_1_4_1"/>
    <trip id="1.337" depart="674.00" from="road_3_5_3" to="road_3_4_1"/>
    <trip id="1.338" depart="676.00" from="road_4_5_3" to="road_4_4_1"/>
    <trip id="1.339" depart="678.00" from="road_0_4_0" to="road_1_3_2"/>
    <trip id="1.340" depart="680.00" from="road_4_0_1" to="road_1_2_2"/>
    <trip id="1.341" depart="682.00" from="road_0_3_0" to="road_1_1_3"/>
    <trip id="1.342" depart="684.00" from="road_0_1_0" to="road_2_4_1"/>
    <trip id="1.343" depart="686.00" from="road_3_5_3" to="road_1_4_1"/>
    <trip id="1.344" depart="688.00" from="road_0_4_0" to="road_4_1_3"/>
    <trip id="1.345" depart="690.00" from="road_4_5_3" to="road_2_4_1"/>
    <trip id="1.346" depart="692.00" from="road_4_0_1" to="road_4_4_0"/>
    <trip id="1.347" depart="694.00" from="road_5_1_2" to="road_3_4_2"/>
    <trip id="1.348" depart="696.00" from="road_4_0_1" to="road_4_4_0"/>
    <trip id="1.349" depart="698.00" from="road_2_0_1" to="road_3_1_3"/>
    <trip id="1.350" depart="700.00" from="road_4_0_1" to="road_4_4_0"/>
    <trip id="1.351" depart="702.00" from="road_5_2_2" to="road_1_1_3"/>
    <trip id="1.352" depart="704.00" from="road_0_3_0" to="road_1_4_1"/>
    <trip id="1.353" depart="706.00" from="road_4_5_3" to="road_3_4_1"/>
    <trip id="1.354" depart="708.00" from="road_1_0_1" to="road_1_1_3"/>
    <trip id="1.355" depart="710.00" from="road_4_5_3" to="road_4_1_3"/>
    <trip id="1.356" depart="712.00" from="road_5_4_2" to="road_3_1_3"/>
    <trip id="1.357" depart="714.00" from="road_2_5_3" to="road_1_1_3"/>
    <trip id="1.358" depart="716.00" from="road_0_1_0" to="road_2_1_3"/>
    <trip id="1.359" depart="718.00" from="road_1_5_3" to="road_1_4_1"/>
    <trip id="1.360" depart="720.00" from="road_0_2_0" to="road_4_4_1"/>
    <trip id="1.361" depart="722.00" from="road_5_2_2" to="road_3_4_1"/>
    <trip id="1.362" depart="724.00" from="road_5_4_2" to="road_4_4_1"/>
    <trip id="1.363" depart="726.00" from="road_4_0_1" to="road_1_4_1"/>
    <trip id="1.364" depart="728.00" from="road_0_1_0" to="road_4_2_0"/>
    <trip id="1.365" depart="730.00" from="road_2_5_3" to="road_4_1_0"/>
    <trip id="1.366" depart="732.00" from="road_5_3_2" to="road_1_2_2"/>
    <trip id="1.367" depart="734.00" from="road_3_5_3" to="road_4_1_0"/>
    <trip id="1.368" depart="736.00" from="road_2_5_3" to="road_1_1_3"/>
    <trip id="1.369" depart="738.00" from="road_1_5_3" to="road_1_4_2"/>
    <trip id="1.370" depart="740.00" from="road_4_0_1" to="road_4_3_0"/>
    <trip id="1.371" depart="742.00" from="road_1_5_3" to="road_4_1_3"/>
    <trip id="1.372" depart="744.00" from="road_1_0_1" to="road_4_4_1"/>
    <trip id="1.373" depart="746.00" from="road_5_2_2" to="road_3_1_3"/>
    <trip id="1.374" depart="748.00" from="road_2_5_3" to="road_1_4_2"/>
    <trip id="1.375" depart="750.00" from="road_1_5_3" to="road_4_4_1"/>
    <trip id="1.376" depart="752.00" from="road_2_0_1" to="road_3_1_3"/>
    <trip id="1.377" depart="754.00" from="road_5_4_2" to="road_4_1_0"/>
    <trip id="1.378" depart="756.00" from="road_3_0_1" to="road_2_1_3"/>
    <trip id="1.379" depart="758.00" from="road_0_4_0" to="road_1_4_2"/>
    <trip id="1.380" depart="760.00" from="road_5_1_2" to="road_4_1_0"/>
    <trip id="1.381" depart="762.00" from="road_5_1_2" to="road_1_3_2"/>
    <trip id="1.382" depart="764.00" from="road_3_0_1" to="road_4_4_0"/>
    <trip id="1.383" depart="766.00" from="road_2_5_3" to="road_4_1_3"/>
    <trip id="1.384" depart="768.00" from="road_0_2_0" to="road_4_4_1"/>
    <trip id="1.385" depart="770.00" from="road_3_5_3" to="road_1_3_2"/>
    <trip id="1.386" depart="772.00" from="road_0_3_0" to="road_3_1_3"/>
    <trip id="1.387" depart="774.00" from="road_3_0_1" to="road_1_1_3"/>
    <trip id="1.388" depart="776.00" from="road_5_4_2" to="road_4_4_0"/>
    <trip id="1.389" depart="778.00" from="road_2_5_3" to="road_1_1_3"/>
    <trip id="1.390" depart="780.00" from="road_5_2_2" to="road_2_4_1"/>
    <trip id="1.391" depart="782.00" from="road_4_5_3" to="road_3_1_3"/>
    <trip id="1.392" depart="784.00" from="road_1_0_1" to="road_4_3_0"/>
    <trip id="1.393" depart="786.00" from="road_5_4_2" to="road_1_3_2"/>
    <trip id="1.394" depart="788.00" from="road_3_0_1" to="road_2_1_3"/>
    <trip id="1.395" depart="790.00" from="road_5_3_2" to="road_3_1_3"/>
    <trip id="1.396" depart="792.00" from="road_5_3_2" to="road_4_3_0"/>
    <trip id="1.397" depart="794.00" from="road_1_0_1" to="road_4_2_0"/>
    <trip id="1.398" depart="796.00" from="road_2_0_1" to="road_4_4_0"/>
    <trip id="1.399" depart="798.00" from="road_3_0_1" to="road_4_3_0"/>
    <trip id="1.400" depart="800.00" from="road_1_0_1" to="road_1_4_1"/>
    <trip id="1.401" depart="802.00" from="road_3_5_3" to="road_4_4_1"/>