<?xml version="1.0" encoding="UTF-8"?>
<!-- generated on 2024-08-28 10:26:14.805030 by randomTrips.py v1_11_0+0000-d32ff7d52a3
  options: -n SUMO_roadnet_4_4_4_phase_Right_Green_turn_30.net.xml -b 1200 -e 1800 <doubleminus>period 0.5 <doubleminus>fringe-factor 7200 -L -o uniform_3.trips.xml
-->
<routes xmlns:xsi="http://www.w3.org/2001/XMLSchema-instance" xsi:noNamespaceSchemaLocation="http://sumo.dlr.de/xsd/routes_file.xsd">
    <trip id="3_0" depart="1200.00" from="road_4_0_1" to="road_1_1_2"/>
    <trip id="3_1" depart="1200.50" from="road_1_0_1" to="road_1_3_2"/>
    <trip id="3_2" depart="1201.00" from="road_4_5_3" to="road_4_1_0"/>
    <trip id="3_3" depart="1201.50" from="road_5_3_2" to="road_1_1_3"/>
    <trip id="3_4" depart="1202.00" from="road_2_0_1" to="road_1_1_2"/>
    <trip id="3_5" depart="1202.50" from="road_0_4_0" to="road_3_1_3"/>
    <trip id="3_6" depart="1203.00" from="road_0_1_0" to="road_1_3_2"/>
    <trip id="3_7" depart="1203.50" from="road_4_0_1" to="road_3_1_3"/>
    <trip id="3_8" depart="1204.00" from="road_0_4_0" to="road_3_4_1"/>
    <trip id="3_9" depart="1204.50" from="road_5_1_2" to="road_1_1_2"/>
    <trip id="3_10" depart="1205.00" from="road_5_1_2" to="road_4_1_3"/>
    <trip id="3_11" depart="1205.50" from="road_1_5_3" to="road_1_2_2"/>
    <trip id="3_12" depart="1206.00" from="road_5_4_2" to="road_1_4_2"/>
    <trip id="3_13" depart="1206.50" from="road_0_2_0" to="road_1_1_3"/>
    <trip id="3_14" depart="1207.00" from="road_5_2_2" to="road_3_4_1"/>
    <trip id="3_15" depart="1207.50" from="road_5_1_2" to="road_4_1_3"/>
    <trip id="3_16" depart="1208.00" from="road_3_0_1" to="road_4_4_1"/>
    <trip id="3_17" depart="1208.50" from="road_2_0_1" to="road_3_1_3"/>
    <trip id="3_18" depart="1209.00" from="road_5_2_2" to="road_3_4_1"/>
    <trip id="3_19" depart="1209.50" from="road_5_2_2" to="road_3_4_1"/>
    <trip id="3_20" depart="1210.00" from="road_4_5_3" to="road_1_1_2"/>
    <trip id="3_21" depart="1210.50" from="road_0_4_0" to="road_1_4_1"/>
    <trip id="3_22" depart="1211.00" from="road_0_2_0" to="road_1_3_2"/>
    <trip id="3_23" depart="1211.50" from="road_0_2_0" to="road_1_4_1"/>
    <trip id="3_24" depart="1212.00" from="road_4_0_1" to="road_1_4_2"/>
    <trip id="3_25" depart="1212.50" from="road_1_5_3" to="road_1_3_2"/>
    <trip id="3_26" depart="1213.00" from="road_1_0_1" to="road_4_4_0"/>
    <trip id="3_27" depart="1213.50" from="road_4_0_1" to="road_3_4_1"/>
    <trip id="3_28" depart="1214.00" from="road_0_3_0" to="road_4_1_3"/>
    <trip id="3_29" depart="1214.50" from="road_0_3_0" to="road_2_1_3"/>
    <trip id="3_30" depart="1215.00" from="road_5_4_2" to="road_4_1_0"/>
    <trip id="3_31" depart="1215.50" from="road_3_0_1" to="road_4_1_0"/>
    <trip id="3_32" depart="1216.00" from="road_5_2_2" to="road_4_2_0"/>
    <trip id="3_33" depart="1216.50" from="road_0_4_0" to="road_1_1_2"/>
    <trip id="3_34" depart="1217.00" from="road_1_5_3" to="road_1_4_1"/>
    <trip id="3_35" depart="1217.50" from="road_0_4_0" to="road_4_4_1"/>
    <trip id="3_36" depart="1218.00" from="road_5_3_2" to="road_1_4_2"/>
    <trip id="3_37" depart="1218.50" from="road_4_0_1" to="road_2_1_3"/>
    <trip id="3_38" depart="1219.00" from="road_5_3_2" to="road_2_4_1"/>
    <trip id="3_39" depart="1219.50" from="road_1_0_1" to="road_1_3_2"/>
    <trip id="3_40" depart="1220.00" from="road_3_0_1" to="road_1_4_1"/>
    <trip id="3_41" depart="1220.50" from="road_3_5_3" to="road_4_4_0"/>
    <trip id="3_42" depart="1221.00" from="road_2_0_1" to="road_1_3_2"/>
    <trip id="3_43" depart="1221.50" from="road_5_4_2" to="road_3_1_3"/>
    <trip id="3_44" depart="1222.00" from="road_0_2_0" to="road_1_1_2"/>
    <trip id="3_45" depart="1222.50" from="road_0_2_0" to="road_4_1_0"/>
    <trip id="3_46" depart="1223.00" from="road_5_1_2" to="road_2_1_3"/>
    <trip id="3_47" depart="1223.50" from="road_0_2_0" to="road_2_1_3"/>
    <trip id="3_48" depart="1224.00" from="road_5_4_2" to="road_3_1_3"/>
    <trip id="3_49" depart="1224.50" from="road_5_4_2" to="road_4_3_0"/>
    <trip id="3_50" depart="1225.00" from="road_0_1_0" to="road_4_1_3"/>
    <trip id="3_51" depart="1225.50" from="road_4_0_1" to="road_3_1_3"/>
    <trip id="3_52" depart="1226.00" from="road_1_0_1" to="road_4_1_0"/>
    <trip id="3_53" depart="1226.50" from="road_0_2_0" to="road_2_1_3"/>
    <trip id="3_54" depart="1227.00" from="road_2_5_3" to="road_4_4_1"/>
    <trip id="3_55" depart="1227.50" from="road_5_3_2" to="road_1_4_1"/>
    <trip id="3_56" depart="1228.00" from="road_3_0_1" to="road_1_2_2"/>
    <trip id="3_57" depart="1228.50" from="road_5_3_2" to="road_4_3_0"/>
    <trip id="3_58" depart="1229.00" from="road_1_0_1" to="road_4_1_0"/>
    <trip id="3_59" depart="1229.50" from="road_3_5_3" to="road_1_2_2"/>
    <trip id="3_60" depart="1230.00" from="road_5_1_2" to="road_3_1_3"/>
    <trip id="3_61" depart="1230.50" from="road_5_1_2" to="road_3_1_3"/>
    <trip id="3_62" depart="1231.00" from="road_0_1_0" to="road_1_4_2"/>
    <trip id="3_63" depart="1231.50" from="road_0_1_0" to="road_4_4_0"/>
    <trip id="3_64" depart="1232.00" from="road_5_3_2" to="road_4_3_0"/>
    <trip id="3_65" depart="1232.50" from="road_1_0_1" to="road_1_1_2"/>
    <trip id="3_66" depart="1233.00" from="road_5_3_2" to="road_4_4_1"/>
    <trip id="3_67" depart="1233.50" from="road_0_2_0" to="road_2_4_1"/>
    <trip id="3_68" depart="1234.00" from="road_0_2_0" to="road_4_2_0"/>
    <trip id="3_69" depart="1234.50" from="road_5_1_2" to="road_1_2_2"/>
    <trip id="3_70" depart="1235.00" from="road_2_5_3" to="road_3_1_3"/>
    <trip id="3_71" depart="1235.50" from="road_1_0_1" to="road_4_3_0"/>
    <trip id="3_72" depart="1236.00" from="road_2_0_1" to="road_1_3_2"/>
    <trip id="3_73" depart="1236.50" from="road_3_0_1" to="road_4_1_3"/>
    <trip id="3_74" depart="1237.00" from="road_0_4_0" to="road_1_4_1"/>
    <trip id="3_75" depart="1237.50" from="road_5_4_2" to="road_4_1_0"/>
    <trip id="3_76" depart="1238.00" from="road_2_5_3" to="road_3_1_3"/>
    <trip id="3_77" depart="1238.50" from="road_0_2_0" to="road_1_3_2"/>
    <trip id="3_78" depart="1239.00" from="road_1_5_3" to="road_3_4_1"/>
    <trip id="3_79" depart="1239.50" from="road_0_4_0" to="road_1_3_2"/>
    <trip id="3_80" depart="1240.00" from="road_0_2_0" to="road_4_1_0"/>
    <trip id="3_81" depart="1240.50" from="road_0_4_0" to="road_4_4_0"/>
    <trip id="3_82" depart="1241.00" from="road_5_2_2" to="road_1_1_3"/>
    <trip id="3_83" depart="1241.50" from="road_0_4_0" to="road_4_1_0"/>
    <trip id="3_84" depart="1242.00" from="road_0_4_0" to="road_1_2_2"/>
    <trip id="3_85" depart="1242.50" from="road_5_3_2" to="road_3_4_1"/>
    <trip id="3_86" depart="1243.00" from="road_2_5_3" to="road_4_2_0"/>
    <trip id="3_87" depart="1243.50" from="road_5_1_2" to="road_1_3_2"/>
    <trip id="3_88" depart="1244.00" from="road_0_2_0" to="road_2_1_3"/>
    <trip id="3_89" depart="1244.50" from="road_2_0_1" to="road_2_4_1"/>
    <trip id="3_90" depart="1245.00" from="road_4_5_3" to="road_4_1_0"/>
    <trip id="3_91" depart="1245.50" from="road_5_4_2" to="road_1_1_3"/>
    <trip id="3_92" depart="1246.00" from="road_2_0_1" to="road_1_4_2"/>
    <trip id="3_93" depart="1246.50" from="road_5_2_2" to="road_1_3_2"/>
    <trip id="3_94" depart="1247.00" from="road_0_4_0" to="road_2_4_1"/>
    <trip id="3_95" depart="1247.50" from="road_2_0_1" to="road_1_4_1"/>
    <trip id="3_96" depart="1248.00" from="road_0_4_0" to="road_4_4_0"/>
    <trip id="3_97" depart="1248.50" from="road_2_5_3" to="road_4_3_0"/>
    <trip id="3_98" depart="1249.00" from="road_3_0_1" to="road_1_1_2"/>
    <trip id="3_99" depart="1249.50" from="road_5_4_2" to="road_4_3_0"/>
    <trip id="3_100" depart="1250.00" from="road_5_4_2" to="road_4_4_0"/>
    <trip id="3_101" depart="1250.50" from="road_5_2_2" to="road_1_2_2"/>
    <trip id="3_102" depart="1251.00" from="road_2_5_3" to="road_1_3_2"/>
    <trip id="3_103" depart="1251.50" from="road_2_0_1" to="road_1_1_2"/>
    <trip id="3_104" depart="1252.00" from="road_2_0_1" to="road_4_4_1"/>
    <trip id="3_105" depart="1252.50" from="road_1_0_1" to="road_4_2_0"/>
    <trip id="3_106" depart="1253.00" from="road_2_5_3" to="road_2_1_3"/>
    <trip id="3_107" depart="1253.50" from="road_5_4_2" to="road_4_4_1"/>
    <trip id="3_108" depart="1254.00" from="road_3_0_1" to="road_4_1_3"/>
    <trip id="3_109" depart="1254.50" from="road_0_3_0" to="road_1_4_1"/>
    <trip id="3_110" depart="1255.00" from="road_5_4_2" to="road_3_4_1"/>
    <trip id="3_111" depart="1255.50" from="road_3_0_1" to="road_4_1_3"/>
    <trip id="3_112" depart="1256.00" from="road_0_1_0" to="road_3_4_1"/>
    <trip id="3_113" depart="1256.50" from="road_3_0_1" to="road_4_3_0"/>
    <trip id="3_114" depart="1257.00" from="road_0_3_0" to="road_4_4_1"/>
    <trip id="3_115" depart="1257.50" from="road_0_2_0" to="road_1_2_2"/>
    <trip id="3_116" depart="1258.00" from="road_3_5_3" to="road_4_1_0"/>
    <trip id="3_117" depart="1258.50" from="road_0_4_0" to="road_1_1_3"/>
    <trip id="3_118" depart="1259.00" from="road_5_3_2" to="road_1_3_2"/>
    <trip id="3_119" depart="1259.50" from="road_3_5_3" to="road_3_4_1"/>
    <trip id="3_120" depart="1260.00" from="road_2_0_1" to="road_3_4_1"/>
    <trip id="3_121" depart="1260.50" from="road_3_0_1" to="road_4_4_0"/>
    <trip id="3_122" depart="1261.00" from="road_0_4_0" to="road_4_1_3"/>
    <trip id="3_123" depart="1261.50" from="road_0_4_0" to="road_2_1_3"/>
    <trip id="3_124" depart="1262.00" from="road_4_0_1" to="road_1_4_1"/>
    <trip id="3_125" depart="1262.50" from="road_1_5_3" to="road_4_2_0"/>
    <trip id="3_126" depart="1263.00" from="road_0_2_0" to="road_2_4_1"/>
    <trip id="3_127" depart="1263.50" from="road_5_4_2" to="road_4_4_1"/>
    <trip id="3_128" depart="1264.00" from="road_0_2_0" to="road_1_3_2"/>
    <trip id="3_129" depart="1264.50" from="road_1_0_1" to="road_4_4_0"/>
    <trip id="3_130" depart="1265.00" from="road_5_3_2" to="road_4_4_0"/>
    <trip id="3_131" depart="1265.50" from="road_1_5_3" to="road_1_2_2"/>
    <trip id="3_132" depart="1266.00" from="road_5_2_2" to="road_4_1_3"/>
    <trip id="3_133" depart="1266.50" from="road_3_5_3" to="road_4_4_1"/>
    <trip id="3_134" depart="1267.00" from="road_4_0_1" to="road_1_1_2"/>
    <trip id="3_135" depart="1267.50" from="road_5_2_2" to="road_1_4_1"/>
    <trip id="3_136" depart="1268.00" from="road_4_0_1" to="road_4_4_1"/>
    <trip id="3_137" depart="1268.50" from="road_0_3_0" to="road_1_1_3"/>
    <trip id="3_138" depart="1269.00" from="road_0_2_0" to="road_3_1_3"/>
    <trip id="3_139" depart="1269.50" from="road_1_0_1" to="road_3_4_1"/>
    <trip id="3_140" depart="1270.00" from="road_4_5_3" to="road_1_3_2"/>
    <trip id="3_141" depart="1270.50" from="road_4_0_1" to="road_1_4_1"/>
    <trip id="3_142" depart="1271.00" from="road_2_5_3" to="road_4_4_0"/>
    <trip id="3_143" depart="1271.50" from="road_5_2_2" to="road_1_1_3"/>
    <trip id="3_144" depart="1272.00" from="road_2_0_1" to="road_1_4_1"/>
    <trip id="3_145" depart="1272.50" from="road_0_1_0" to="road_4_2_0"/>
    <trip id="3_146" depart="1273.00" from="road_4_0_1" to="road_1_4_1"/>
    <trip id="3_147" depart="1273.50" from="road_4_5_3" to="road_3_1_3"/>
    <trip id="3_148" depart="1274.00" from="road_2_0_1" to="road_1_1_2"/>
    <trip id="3_149" depart="1274.50" from="road_0_2_0" to="road_4_4_0"/>
    <trip id="3_150" depart="1275.00" from="road_5_3_2" to="road_3_1_3"/>
    <trip id="3_151" depart="1275.50" from="road_5_2_2" to="road_3_4_1"/>
    <trip id="3_152" depart="1276.00" from="road_0_3_0" to="road_1_2_2"/>
    <trip id="3_153" depart="1276.50" from="road_1_0_1" to="road_4_4_0"/>
    <trip id="3_154" depart="1277.00" from="road_5_1_2" to="road_4_3_0"/>
    <trip id="3_155" depart="1277.50" from="road_5_3_2" to="road_1_3_2"/>
    <trip id="3_156" depart="1278.00" from="road_0_4_0" to="road_1_1_3"/>
    <trip id="3_157" depart="1278.50" from="road_5_1_2" to="road_4_4_0"/>
    <trip id="3_158" depart="1279.00" from="road_2_0_1" to="road_3_4_1"/>
    <trip id="3_159" depart="1279.50" from="road_0_3_0" to="road_4_4_0"/>
    <trip id="3_160" depart="1280.00" from="road_5_2_2" to="road_4_4_1"/>
    <trip id="3_161" depart="1280.50" from="road_5_1_2" to="road_4_4_0"/>
    <trip id="3_162" depart="1281.00" from="road_0_1_0" to="road_4_1_3"/>
    <trip id="3_163" depart="1281.50" from="road_1_5_3" to="road_4_4_0"/>
    <trip id="3_164" depart="1282.00" from="road_5_1_2" to="road_4_3_0"/>
    <trip id="3_165" depart="1282.50" from="road_5_1_2" to="road_1_4_1"/>
    <trip id="3_166" depart="1283.00" from="road_5_1_2" to="road_1_1_3"/>
    <trip id="3_167" depart="1283.50" from="road_5_2_2" to="road_4_3_0"/>
    <trip id="3_168" depart="1284.00" from="road_0_4_0" to="road_4_3_0"/>
    <trip id="3_169" depart="1284.50" from="road_2_5_3" to="road_1_4_1"/>
    <trip id="3_170" depart="1285.00" from="road_5_1_2" to="road_1_3_2"/>
    <trip id="3_171" depart="1285.50" from="road_0_1_0" to="road_1_3_2"/>
    <trip id="3_172" depart="1286.00" from="road_1_5_3" to="road_4_3_0"/>
    <trip id="3_173" depart="1286.50" from="road_5_4_2" to="road_1_4_1"/>
    <trip id="3_174" depart="1287.00" from="road_4_0_1" to="road_2_1_3"/>
    <trip id="3_175" depart="1287.50" from="road_5_4_2" to="road_3_1_3"/>
    <trip id="3_176" depart="1288.00" from="road_5_4_2" to="road_1_1_3"/>
    <trip id="3_177" depart="1288.50" from="road_5_4_2" to="road_1_2_2"/>
    <trip id="3_178" depart="1289.00" from="road_5_4_2" to="road_1_4_1"/>
    <trip id="3_179" depart="1289.50" from="road_0_2_0" to="road_2_1_3"/>
    <trip id="3_180" depart="1290.00" from="road_4_5_3" to="road_1_4_2"/>
    <trip id="3_181" depart="1290.50" from="road_3_5_3" to="road_3_1_3"/>
    <trip id="3_182" depart="1291.00" from="road_2_0_1" to="road_3_4_1"/>
    <trip id="3_183" depart="1291.50" from="road_1_0_1" to="road_4_1_3"/>
    <trip id="3_184" depart="1292.00" from="road_0_1_0" to="road_4_4_0"/>
    <trip id="3_185" depart="1292.50" from="road_3_0_1" to="road_4_1_3"/>
    <trip id="3_186" depart="1293.00" from="road_4_5_3" to="road_4_1_0"/>
    <trip id="3_187" depart="1293.50" from="road_1_5_3" to="road_1_1_3"/>
    <trip id="3_188" depart="1294.00" from="road_4_0_1" to="road_1_4_2"/>
    <trip id="3_189" depart="1294.50" from="road_1_5_3" to="road_4_3_0"/>
    <trip id="3_190" depart="1295.00" from="road_4_5_3" to="road_1_4_1"/>
    <trip id="3_191" depart="1295.50" from="road_1_0_1" to="road_2_1_3"/>
    <trip id="3_192" depart="1296.00" from="road_2_0_1" to="road_1_4_1"/>
    <trip id="3_193" depart="1296.50" from="road_0_3_0" to="road_2_1_3"/>
    <trip id="3_194" depart="1297.00" from="road_5_4_2" to="road_4_1_0"/>
    <trip id="3_195" depart="1297.50" from="road_5_3_2" to="road_3_4_1"/>
    <trip id="3_196" depart="1298.00" from="road_1_0_1" to="road_3_1_3"/>
    <trip id="3_197" depart="1298.50" from="road_0_1_0" to="road_1_4_1"/>
    <trip id="3_198" depart="1299.00" from="road_2_0_1" to="road_3_4_1"/>
    <trip id="3_199" depart="1299.50" from="road_4_0_1" to="road_2_4_1"/>
    <trip id="3_200" depart="1300.00" from="road_2_5_3" to="road_1_3_2"/>
    <trip id="3_201" depart="1300.50" from="road_2_5_3" to="road_4_4_0"/>
    <trip id="3_202" depart="1301.00" from="road_5_1_2" to="road_1_2_2"/>
    <trip id="3_203" depart="1301.50" from="road_0_2_0" to="road_3_1_3"/>
    <trip id="3_204" depart="1302.00" from="road_4_0_1" to="road_1_4_2"/>
    <trip id="3_205" depart="1302.50" from="road_5_2_2" to="road_4_2_0"/>
    <trip id="3_206" depart="1303.00" from="road_4_0_1" to="road_1_3_2"/>
    <trip id="3_207" depart="1303.50" from="road_0_4_0" to="road_1_1_2"/>
    <trip id="3_208" depart="1304.00" from="road_0_4_0" to="road_2_4_1"/>
    <trip id="3_209" depart="1304.50" from="road_5_2_2" to="road_1_1_3"/>
    <trip id="3_210" depart="1305.00" from="road_2_0_1" to="road_4_1_0"/>
    <trip id="3_211" depart="1305.50" from="road_0_4_0" to="road_4_1_3"/>
    <trip id="3_212" depart="1306.00" from="road_2_5_3" to="road_1_3_2"/>
    <trip id="3_213" depart="1306.50" from="road_4_0_1" to="road_1_1_2"/>
    <trip id="3_214" depart="1307.00" from="road_5_1_2" to="road_4_2_0"/>
    <trip id="3_215" depart="1307.50" from="road_0_2_0" to="road_2_1_3"/>
    <trip id="3_216" depart="1308.00" from="road_0_3_0" to="road_4_4_1"/>
    <trip id="3_217" depart="1308.50" from="road_3_0_1" to="road_1_1_2"/>
    <trip id="3_218" depart="1309.00" from="road_0_4_0" to="road_4_3_0"/>
    <trip id="3_219" depart="1309.50" from="road_2_5_3" to="road_4_2_0"/>
    <trip id="3_220" depart="1310.00" from="road_4_0_1" to="road_4_4_1"/>
    <trip id="3_221" depart="1310.50" from="road_3_5_3" to="road_4_4_1"/>
    <trip id="3_222" depart="1311.00" from="road_5_3_2" to="road_3_4_1"/>
    <trip id="3_223" depart="1311.50" from="road_4_5_3" to="road_3_1_3"/>
    <trip id="3_224" depart="1312.00" from="road_5_2_2" to="road_3_1_3"/>
    <trip id="3_225" depart="1312.50" from="road_5_3_2" to="road_4_1_3"/>
    <trip id="3_226" depart="1313.00" from="road_2_5_3" to="road_1_4_1"/>
    <trip id="3_227" depart="1313.50" from="road_0_4_0" to="road_4_1_0"/>
    <trip id="3_228" depart="1314.00" from="road_5_1_2" to="road_3_1_3"/>
    <trip id="3_229" depart="1314.50" from="road_4_0_1" to="road_1_4_1"/>
    <trip id="3_230" depart="1315.00" from="road_0_2_0" to="road_1_4_1"/>
    <trip id="3_231" depart="1315.50" from="road_1_0_1" to="road_1_4_2"/>
    <trip id="3_232" depart="1316.00" from="road_3_0_1" to="road_1_2_2"/>
    <trip id="3_233" depart="1316.50" from="road_0_4_0" to="road_4_1_3"/>
    <trip id="3_234" depart="1317.00" from="road_4_5_3" to="road_1_1_3"/>
    <trip id="3_235" depart="1317.50" from="road_2_0_1" to="road_3_1_3"/>
    <trip id="3_236" depart="1318.00" from="road_2_0_1" to="road_1_3_2"/>
    <trip id="3_237" depart="1318.50" from="road_2_0_1" to="road_4_4_0"/>
    <trip id="3_238" depart="1319.00" from="road_3_5_3" to="road_4_1_3"/>
    <trip id="3_239" depart="1319.50" from="road_5_2_2" to="road_4_2_0"/>
    <trip id="3_240" depart="1320.00" from="road_2_0_1" to="road_1_1_2"/>
    <trip id="3_241" depart="1320.50" from="road_1_5_3" to="road_4_2_0"/>
    <trip id="3_242" depart="1321.00" from="road_5_2_2" to="road_4_4_1"/>
    <trip id="3_243" depart="1321.50" from="road_2_0_1" to="road_4_1_3"/>
    <trip id="3_244" depart="1322.00" from="road_3_0_1" to="road_3_4_1"/>
    <trip id="3_245" depart="1322.50" from="road_0_4_0" to="road_1_3_2"/>
    <trip id="3_246" depart="1323.00" from="road_2_0_1" to="road_1_1_2"/>
    <trip id="3_247" depart="1323.50" from="road_1_5_3" to="road_4_1_0"/>
    <trip id="3_248" depart="1324.00" from="road_2_0_1" to="road_1_2_2"/>
    <trip id="3_249" depart="1324.50" from="road_2_5_3" to="road_1_2_2"/>
    <trip id="3_250" depart="1325.00" from="road_3_5_3" to="road_1_1_2"/>
    <trip id="3_251" depart="1325.50" from="road_2_0_1" to="road_3_4_1"/>
    <trip id="3_252" depart="1326.00" from="road_0_1_0" to="road_4_1_0"/>
    <trip id="3_253" depart="1326.50" from="road_0_3_0" to="road_2_4_1"/>
    <trip id="3_254" depart="1327.00" from="road_0_1_0" to="road_2_1_3"/>
    <trip id="3_255" depart="1327.50" from="road_0_4_0" to="road_1_4_2"/>
    <trip id="3_256" depart="1328.00" from="road_5_1_2" to="road_2_1_3"/>
    <trip id="3_257" depart="1328.50" from="road_5_1_2" to="road_4_3_0"/>
    <trip id="3_258" depart="1329.00" from="road_1_0_1" to="road_1_1_3"/>
    <trip id="3_259" depart="1329.50" from="road_0_1_0" to="road_3_1_3"/>
    <trip id="3_260" depart="1330.00" from="road_5_4_2" to="road_1_4_2"/>
    <trip id="3_261" depart="1330.50" from="road_4_0_1" to="road_4_2_0"/>
    <trip id="3_262" depart="1331.00" from="road_4_0_1" to="road_4_2_0"/>
    <trip id="3_263" depart="1331.50" from="road_5_4_2" to="road_1_3_2"/>
    <trip id="3_264" depart="1332.00" from="road_0_1_0" to="road_1_2_2"/>
    <trip id="3_265" depart="1332.50" from="road_0_3_0" to="road_4_1_0"/>
    <trip id="3_266" depart="1333.00" from="road_3_5_3" to="road_1_3_2"/>
    <trip id="3_267" depart="1333.50" from="road_4_5_3" to="road_4_2_0"/>
    <trip id="3_268" depart="1334.00" from="road_0_3_0" to="road_3_4_1"/>
    <trip id="3_269" depart="1334.50" from="road_4_5_3" to="road_1_1_3"/>
    <trip id="3_270" depart="1335.00" from="road_5_2_2" to="road_4_4_1"/>
    <trip id="3_271" depart="1335.50" from="road_0_2_0" to="road_1_1_2"/>
    <trip id="3_272" depart="1336.00" from="road_1_0_1" to="road_4_1_0"/>
    <trip id="3_273" depart="1336.50" from="road_5_4_2" to="road_2_1_3"/>
    <trip id="3_274" depart="1337.00" from="road_4_5_3" to="road_1_1_3"/>
    <trip id="3_275" depart="1337.50" from="road_4_5_3" to="road_4_1_0"/>
    <trip id="3_276" depart="1338.00" from="road_0_2_0" to="road_4_2_0"/>
    <trip id="3_277" depart="1338.50" from="road_5_2_2" to="road_3_4_1"/>
    <trip id="3_278" depart="1339.00" from="road_0_2_0" to="road_4_4_1"/>
    <trip id="3_279" depart="1339.50" from="road_5_1_2" to="road_1_4_2"/>
    <trip id="3_280" depart="1340.00" from="road_2_0_1" to="road_1_4_2"/>
    <trip id="3_281" depart="1340.50" from="road_3_0_1" to="road_1_4_2"/>
    <trip id="3_282" depart="1341.00" from="road_5_2_2" to="road_4_3_0"/>
    <trip id="3_283" depart="1341.50" from="road_0_2_0" to="road_4_4_1"/>
    <trip id="3_284" depart="1342.00" from="road_4_0_1" to="road_4_3_0"/>
    <trip id="3_285" depart="1342.50" from="road_4_5_3" to="road_2_1_3"/>
    <trip id="3_286" depart="1343.00" from="road_4_5_3" to="road_4_4_1"/>
    <trip id="3_287" depart="1343.50" from="road_1_0_1" to="road_4_2_0"/>
    <trip id="3_288" depart="1344.00" from="road_3_0_1" to="road_2_4_1"/>
    <trip id="3_289" depart="1344.50" from="road_2_0_1" to="road_4_1_3"/>
    <trip id="3_290" depart="1345.00" from="road_1_0_1" to="road_4_3_0"/>
    <trip id="3_291" depart="1345.50" from="road_5_2_2" to="road_1_1_3"/>
    <trip id="3_292" depart="1346.00" from="road_5_3_2" to="road_1_3_2"/>
    <trip id="3_293" depart="1346.50" from="road_2_5_3" to="road_3_4_1"/>
    <trip id="3_294" depart="1347.00" from="road_2_0_1" to="road_1_1_2"/>
    <trip id="3_295" depart="1347.50" from="road_5_2_2" to="road_1_2_2"/>
    <trip id="3_296" depart="1348.00" from="road_0_4_0" to="road_4_2_0"/>
    <trip id="3_297" depart="1348.50" from="road_1_5_3" to="road_4_4_0"/>
    <trip id="3_298" depart="1349.00" from="road_4_5_3" to="road_1_4_1"/>
    <trip id="3_299" depart="1349.50" from="road_0_1_0" to="road_4_4_1"/>
    <trip id="3_300" depart="1350.00" from="road_0_2_0" to="road_4_1_3"/>
    <trip id="3_301" depart="1350.50" from="road_2_5_3" to="road_4_2_0"/>
    <trip id="3_302" depart="1351.00" from="road_4_5_3" to="road_4_1_0"/>
    <trip id="3_303" depart="1351.50" from="road_2_5_3" to="road_4_2_0"/>
    <trip id="3_304" depart="1352.00" from="road_0_2_0" to="road_1_3_2"/>
    <trip id="3_305" depart="1352.50" from="road_4_5_3" to="road_1_4_1"/>
    <trip id="3_306" depart="1353.00" from="road_3_5_3" to="road_2_4_1"/>
    <trip id="3_307" depart="1353.50" from="road_3_0_1" to="road_2_1_3"/>
    <trip id="3_308" depart="1354.00" from="road_4_5_3" to="road_1_4_2"/>
    <trip id="3_309" depart="1354.50" from="road_4_5_3" to="road_1_4_1"/>
    <trip id="3_310" depart="1355.00" from="road_1_0_1" to="road_1_1_3"/>
    <trip id="3_311" depart="1355.50" from="road_0_4_0" to="road_1_1_3"/>
    <trip id="3_312" depart="1356.00" from="road_3_0_1" to="road_4_2_0"/>
    <trip id="3_313" depart="1356.50" from="road_0_3_0" to="road_1_3_2"/>
    <trip id="3_314" depart="1357.00" from="road_2_5_3" to="road_4_1_3"/>
    <trip id="3_315" depart="1357.50" from="road_5_4_2" to="road_3_1_3"/>
    <trip id="3_316" depart="1358.00" from="road_1_0_1" to="road_1_1_3"/>
    <trip id="3_317" depart="1358.50" from="road_0_4_0" to="road_1_3_2"/>
    <trip id="3_318" depart="1359.00" from="road_0_3_0" to="road_1_1_2"/>
    <trip id="3_319" depart="1359.50" from="road_3_0_1" to="road_1_4_1"/>
    <trip id="3_320" depart="1360.00" from="road_5_4_2" to="road_3_1_3"/>
    <trip id="3_321" depart="1360.50" from="road_4_5_3" to="road_1_2_2"/>
    <trip id="3_322" depart="1361.00" from="road_5_2_2" to="road_2_4_1"/>
    <trip id="3_323" depart="1361.50" from="road_5_2_2" to="road_3_4_1"/>
    <trip id="3_324" depart="1362.00" from="road_2_5_3" to="road_2_4_1"/>
    <trip id="3_325" depart="1362.50" from="road_0_3_0" to="road_1_1_2"/>
    <trip id="3_326" depart="1363.00" from="road_5_4_2" to="road_2_4_1"/>
    <trip id="3_327" depart="1363.50" from="road_5_2_2" to="road_2_1_3"/>
    <trip id="3_328" depart="1364.00" from="road_0_2_0" to="road_4_1_0"/>
    <trip id="3_329" depart="1364.50" from="road_0_1_0" to="road_1_2_2"/>
    <trip id="3_330" depart="1365.00" from="road_3_5_3" to="road_1_4_1"/>
    <trip id="3_331" depart="1365.50" from="road_5_4_2" to="road_1_1_3"/>
    <trip id="3_332" depart="1366.00" from="road_5_1_2" to="road_3_4_1"/>
    <trip id="3_333" depart="1366.50" from="road_5_1_2" to="road_1_3_2"/>
    <trip id="3_334" depart="1367.00" from="road_3_0_1" to="road_2_4_1"/>
    <trip id="3_335" depart="1367.50" from="road_2_5_3" to="road_4_3_0"/>
    <trip id="3_336" depart="1368.00" from="road_5_4_2" to="road_1_4_1"/>
    <trip id="3_337" depart="1368.50" from="road_3_5_3" to="road_3_4_1"/>
    <trip id="3_338" depart="1369.00" from="road_4_5_3" to="road_4_4_1"/>
    <trip id="3_339" depart="1369.50" from="road_0_4_0" to="road_1_3_2"/>
    <trip id="3_340" depart="1370.00" from="road_4_0_1" to="road_1_2_2"/>
    <trip id="3_341" depart="1370.50" from="road_0_3_0" to="road_1_1_3"/>
    <trip id="3_342" depart="1371.00" from="road_0_1_0" to="road_2_4_1"/>
    <trip id="3_343" depart="1371.50" from="road_3_5_3" to="road_1_4_1"/>
    <trip id="3_344" depart="1372.00" from="road_0_4_0" to="road_4_1_3"/>
    <trip id="3_345" depart="1372.50" from="road_4_5_3" to="road_2_4_1"/>
    <trip id="3_346" depart="1373.00" from="road_4_0_1" to="road_4_4_0"/>
    <trip id="3_347" depart="1373.50" from="road_5_1_2" to="road_3_4_2"/>
    <trip id="3_348" depart="1374.00" from="road_4_0_1" to="road_4_4_0"/>
    <trip id="3_349" depart="1374.50" from="road_2_0_1" to="road_3_1_3"/>
    <trip id="3_350" depart="1375.00" from="road_4_0_1" to="road_4_4_0"/>
    <trip id="3_351" depart="1375.50" from="road_5_2_2" to="road_1_1_3"/>
    <trip id="3_352" depart="1376.00" from="road_0_3_0" to="road_1_4_1"/>
    <trip id="3_353" depart="1376.50" from="road_4_5_3" to="road_3_4_1"/>
    <trip id="3_354" depart="1377.00" from="road_1_0_1" to="road_1_1_3"/>
    <trip id="3_355" depart="1377.50" from="road_4_5_3" to="road_4_1_3"/>
    <trip id="3_356" depart="1378.00" from="road_5_4_2" to="road_3_1_3"/>
    <trip id="3_357" depart="1378.50" from="road_2_5_3" to="road_1_1_3"/>
    <trip id="3_358" depart="1379.00" from="road_0_1_0" to="road_2_1_3"/>
    <trip id="3_359" depart="1379.50" from="road_1_5_3" to="road_1_4_1"/>
    <trip id="3_360" depart="1380.00" from="road_0_2_0" to="road_4_4_1"/>
    <trip id="3_361" depart="1380.50" from="road_5_2_2" to="road_3_4_1"/>
    <trip id="3_362" depart="1381.00" from="road_5_4_2" to="road_4_4_1"/>
    <trip id="3_363" depart="1381.50" from="road_4_0_1" to="road_1_4_1"/>
    <trip id="3_364" depart="1382.00" from="road_0_1_0" to="road_4_2_0"/>
    <trip id="3_365" depart="1382.50" from="road_2_5_3" to="road_4_1_0"/>
    <trip id="3_366" depart="1383.00" from="road_5_3_2" to="road_1_2_2"/>
    <trip id="3_367" depart="1383.50" from="road_3_5_3" to="road_4_1_0"/>
    <trip id="3_368" depart="1384.00" from="road_2_5_3" to="road_1_1_3"/>
    <trip id="3_369" depart="1384.50" from="road_1_5_3" to="road_1_4_2"/>
    <trip id="3_370" depart="1385.00" from="road_4_0_1" to="road_4_3_0"/>
    <trip id="3_371" depart="1385.50" from="road_1_5_3" to="road_4_1_3"/>
    <trip id="3_372" depart="1386.00" from="road_1_0_1" to="road_4_4_1"/>
    <trip id="3_373" depart="1386.50" from="road_5_2_2" to="road_3_1_3"/>
    <trip id="3_374" depart="1387.00" from="road_2_5_3" to="road_1_4_2"/>
    <trip id="3_375" depart="1387.50" from="road_1_5_3" to="road_4_4_1"/>
    <trip id="3_376" depart="1388.00" from="road_2_0_1" to="road_3_1_3"/>
    <trip id="3_377" depart="1388.50" from="road_5_4_2" to="road_4_1_0"/>
    <trip id="3_378" depart="1389.00" from="road_3_0_1" to="road_2_1_3"/>
    <trip id="3_379" depart="1389.50" from="road_0_4_0" to="road_1_4_2"/>
    <trip id="3_380" depart="1390.00" from="road_5_1_2" to="road_4_1_0"/>
    <trip id="3_381" depart="1390.50" from="road_5_1_2" to="road_1_3_2"/>
    <trip id="3_382" depart="1391.00" from="road_3_0_1" to="road_4_4_0"/>
    <trip id="3_383" depart="1391.50" from="road_2_5_3" to="road_4_1_3"/>
    <trip id="3_384" depart="1392.00" from="road_0_2_0" to="road_4_4_1"/>
    <trip id="3_385" depart="1392.50" from="road_3_5_3" to="road_1_3_2"/>
    <trip id="3_386" depart="1393.00" from="road_0_3_0" to="road_3_1_3"/>
    <trip id="3_387" depart="1393.50" from="road_3_0_1" to="road_1_1_3"/>
    <trip id="3_388" depart="1394.00" from="road_5_4_2" to="road_4_4_0"/>
    <trip id="3_389" depart="1394.50" from="road_2_5_3" to="road_1_1_3"/>
    <trip id="3_390" depart="1395.00" from="road_5_2_2" to="road_2_4_1"/>
    <trip id="3_391" depart="1395.50" from="road_4_5_3" to="road_3_1_3"/>
    <trip id="3_392" depart="1396.00" from="road_1_0_1" to="road_4_3_0"/>
    <trip id="3_393" depart="1396.50" from="road_5_4_2" to="road_1_3_2"/>
    <trip id="3_394" depart="1397.00" from="road_3_0_1" to="road_2_1_3"/>