<?xml version="1.0" encoding="UTF-8"?>
<!-- generated on 2024-10-12 18:03:32.889204 by randomTrips.py v1_11_0+0000-d32ff7d52a3
  options: -n 4_Phase.net.xml -b 2400 -e 3600 <doubleminus>period 0.5 <doubleminus>fringe-factor 7200 -L -o uniform_33.trips.xml
-->
<routes xmlns:xsi="http://www.w3.org/2001/XMLSchema-instance" xsi:noNamespaceSchemaLocation="http://sumo.dlr.de/xsd/routes_file.xsd">
    <trip id="3.0" depart="2400.00" from="road_4_0_1" to="road_1_1_2"/>
    <trip id="3.1" depart="2400.50" from="road_1_0_1" to="road_1_3_2"/>
    <trip id="3.2" depart="2401.00" from="road_4_5_3" to="road_4_1_0"/>
    <trip id="3.3" depart="2401.50" from="road_5_3_2" to="road_1_1_3"/>
    <trip id="3.4" depart="2402.00" from="road_2_0_1" to="road_1_1_2"/>
    <trip id="3.5" depart="2402.50" from="road_0_4_0" to="road_3_1_3"/>
    <trip id="3.6" depart="2403.00" from="road_0_1_0" to="road_1_3_2"/>
    <trip id="3.7" depart="2403.50" from="road_4_0_1" to="road_3_1_3"/>
    <trip id="3.8" depart="2404.00" from="road_0_4_0" to="road_3_4_1"/>
    <trip id="3.9" depart="2404.50" from="road_5_1_2" to="road_1_1_2"/>
    <trip id="3.10" depart="2405.00" from="road_5_1_2" to="road_4_1_3"/>
    <trip id="3.11" depart="2405.50" from="road_1_5_3" to="road_1_2_2"/>
    <trip id="3.12" depart="2406.00" from="road_5_4_2" to="road_1_4_2"/>
    <trip id="3.13" depart="2406.50" from="road_0_2_0" to="road_1_1_3"/>
    <trip id="3.14" depart="2407.00" from="road_5_2_2" to="road_3_4_1"/>
    <trip id="3.15" depart="2407.50" from="road_5_1_2" to="road_4_1_3"/>
    <trip id="3.16" depart="2408.00" from="road_3_0_1" to="road_4_4_1"/>
    <trip id="3.17" depart="2408.50" from="road_2_0_1" to="road_3_1_3"/>
    <trip id="3.18" depart="2409.00" from="road_5_2_2" to="road_3_4_1"/>
    <trip id="3.19" depart="2409.50" from="road_5_2_2" to="road_3_4_1"/>
    <trip id="3.20" depart="2410.00" from="road_4_5_3" to="road_1_1_2"/>
    <trip id="3.21" depart="2410.50" from="road_0_4_0" to="road_1_4_1"/>
    <trip id="3.22" depart="2411.00" from="road_0_2_0" to="road_1_3_2"/>
    <trip id="3.23" depart="2411.50" from="road_0_2_0" to="road_1_4_1"/>
    <trip id="3.24" depart="2412.00" from="road_4_0_1" to="road_1_4_2"/>
    <trip id="3.25" depart="2412.50" from="road_1_5_3" to="road_1_3_2"/>
    <trip id="3.26" depart="2413.00" from="road_1_0_1" to="road_4_4_0"/>
    <trip id="3.27" depart="2413.50" from="road_4_0_1" to="road_3_4_1"/>
    <trip id="3.28" depart="2414.00" from="road_0_3_0" to="road_4_1_3"/>
    <trip id="3.29" depart="2414.50" from="road_0_3_0" to="road_2_1_3"/>
    <trip id="3.30" depart="2415.00" from="road_5_4_2" to="road_4_1_0"/>
    <trip id="3.31" depart="2415.50" from="road_3_0_1" to="road_4_1_0"/>
    <trip id="3.32" depart="2416.00" from="road_5_2_2" to="road_4_2_0"/>
    <trip id="3.33" depart="2416.50" from="road_0_4_0" to="road_1_1_2"/>
    <trip id="3.34" depart="2417.00" from="road_1_5_3" to="road_1_4_1"/>
    <trip id="3.35" depart="2417.50" from="road_0_4_0" to="road_4_4_1"/>
    <trip id="3.36" depart="2418.00" from="road_5_3_2" to="road_1_4_2"/>
    <trip id="3.37" depart="2418.50" from="road_4_0_1" to="road_2_1_3"/>
    <trip id="3.38" depart="2419.00" from="road_5_3_2" to="road_2_4_1"/>
    <trip id="3.39" depart="2419.50" from="road_1_0_1" to="road_1_3_2"/>
    <trip id="3.40" depart="2420.00" from="road_3_0_1" to="road_1_4_1"/>
    <trip id="3.41" depart="2420.50" from="road_3_5_3" to="road_4_4_0"/>
    <trip id="3.42" depart="2421.00" from="road_2_0_1" to="road_1_3_2"/>
    <trip id="3.43" depart="2421.50" from="road_5_4_2" to="road_3_1_3"/>
    <trip id="3.44" depart="2422.00" from="road_0_2_0" to="road_1_1_2"/>
    <trip id="3.45" depart="2422.50" from="road_0_2_0" to="road_4_1_0"/>
    <trip id="3.46" depart="2423.00" from="road_5_1_2" to="road_2_1_3"/>
    <trip id="3.47" depart="2423.50" from="road_0_2_0" to="road_2_1_3"/>
    <trip id="3.48" depart="2424.00" from="road_5_4_2" to="road_3_1_3"/>
    <trip id="3.49" depart="2424.50" from="road_5_4_2" to="road_4_3_0"/>
    <trip id="3.50" depart="2425.00" from="road_0_1_0" to="road_4_1_3"/>
    <trip id="3.51" depart="2425.50" from="road_4_0_1" to="road_3_1_3"/>
    <trip id="3.52" depart="2426.00" from="road_1_0_1" to="road_4_1_0"/>
    <trip id="3.53" depart="2426.50" from="road_0_2_0" to="road_2_1_3"/>
    <trip id="3.54" depart="2427.00" from="road_2_5_3" to="road_4_4_1"/>
    <trip id="3.55" depart="2427.50" from="road_5_3_2" to="road_1_4_1"/>
    <trip id="3.56" depart="2428.00" from="road_3_0_1" to="road_1_2_2"/>
    <trip id="3.57" depart="2428.50" from="road_5_3_2" to="road_4_3_0"/>
    <trip id="3.58" depart="2429.00" from="road_1_0_1" to="road_4_1_0"/>
    <trip id="3.59" depart="2429.50" from="road_3_5_3" to="road_1_2_2"/>
    <trip id="3.60" depart="2430.00" from="road_5_1_2" to="road_3_1_3"/>
    <trip id="3.61" depart="2430.50" from="road_5_1_2" to="road_3_1_3"/>
    <trip id="3.62" depart="2431.00" from="road_0_1_0" to="road_1_4_2"/>
    <trip id="3.63" depart="2431.50" from="road_0_1_0" to="road_4_4_0"/>
    <trip id="3.64" depart="2432.00" from="road_5_3_2" to="road_4_3_0"/>
    <trip id="3.65" depart="2432.50" from="road_1_0_1" to="road_1_1_2"/>
    <trip id="3.66" depart="2433.00" from="road_5_3_2" to="road_4_4_1"/>
    <trip id="3.67" depart="2433.50" from="road_0_2_0" to="road_2_4_1"/>
    <trip id="3.68" depart="2434.00" from="road_0_2_0" to="road_4_2_0"/>
    <trip id="3.69" depart="2434.50" from="road_5_1_2" to="road_1_2_2"/>
    <trip id="3.70" depart="2435.00" from="road_2_5_3" to="road_3_1_3"/>
    <trip id="3.71" depart="2435.50" from="road_1_0_1" to="road_4_3_0"/>
    <trip id="3.72" depart="2436.00" from="road_2_0_1" to="road_1_3_2"/>
    <trip id="3.73" depart="2436.50" from="road_3_0_1" to="road_4_1_3"/>
    <trip id="3.74" depart="2437.00" from="road_0_4_0" to="road_1_4_1"/>
    <trip id="3.75" depart="2437.50" from="road_5_4_2" to="road_4_1_0"/>
    <trip id="3.76" depart="2438.00" from="road_2_5_3" to="road_3_1_3"/>
    <trip id="3.77" depart="2438.50" from="road_0_2_0" to="road_1_3_2"/>
    <trip id="3.78" depart="2439.00" from="road_1_5_3" to="road_3_4_1"/>
    <trip id="3.79" depart="2439.50" from="road_0_4_0" to="road_1_3_2"/>
    <trip id="3.80" depart="2440.00" from="road_0_2_0" to="road_4_1_0"/>
    <trip id="3.81" depart="2440.50" from="road_0_4_0" to="road_4_4_0"/>
    <trip id="3.82" depart="2441.00" from="road_5_2_2" to="road_1_1_3"/>
    <trip id="3.83" depart="2441.50" from="road_0_4_0" to="road_4_1_0"/>
    <trip id="3.84" depart="2442.00" from="road_0_4_0" to="road_1_2_2"/>
    <trip id="3.85" depart="2442.50" from="road_5_3_2" to="road_3_4_1"/>
    <trip id="3.86" depart="2443.00" from="road_2_5_3" to="road_4_2_0"/>
    <trip id="3.87" depart="2443.50" from="road_5_1_2" to="road_1_3_2"/>
    <trip id="3.88" depart="2444.00" from="road_0_2_0" to="road_2_1_3"/>
    <trip id="3.89" depart="2444.50" from="road_2_0_1" to="road_2_4_1"/>
    <trip id="3.90" depart="2445.00" from="road_4_5_3" to="road_4_1_0"/>
    <trip id="3.91" depart="2445.50" from="road_5_4_2" to="road_1_1_3"/>
    <trip id="3.92" depart="2446.00" from="road_2_0_1" to="road_1_4_2"/>
    <trip id="3.93" depart="2446.50" from="road_5_2_2" to="road_1_3_2"/>
    <trip id="3.94" depart="2447.00" from="road_0_4_0" to="road_2_4_1"/>
    <trip id="3.95" depart="2447.50" from="road_2_0_1" to="road_1_4_1"/>
    <trip id="3.96" depart="2448.00" from="road_0_4_0" to="road_4_4_0"/>
    <trip id="3.97" depart="2448.50" from="road_2_5_3" to="road_4_3_0"/>
    <trip id="3.98" depart="2449.00" from="road_3_0_1" to="road_1_1_2"/>
    <trip id="3.99" depart="2449.50" from="road_5_4_2" to="road_4_3_0"/>
    <trip id="3.100" depart="2450.00" from="road_5_4_2" to="road_4_4_0"/>
    <trip id="3.101" depart="2450.50" from="road_5_2_2" to="road_1_2_2"/>
    <trip id="3.102" depart="2451.00" from="road_2_5_3" to="road_1_3_2"/>
    <trip id="3.103" depart="2451.50" from="road_2_0_1" to="road_1_1_2"/>
    <trip id="3.104" depart="2452.00" from="road_2_0_1" to="road_4_4_1"/>
    <trip id="3.105" depart="2452.50" from="road_1_0_1" to="road_4_2_0"/>
    <trip id="3.106" depart="2453.00" from="road_2_5_3" to="road_2_1_3"/>
    <trip id="3.107" depart="2453.50" from="road_5_4_2" to="road_4_4_1"/>
    <trip id="3.108" depart="2454.00" from="road_3_0_1" to="road_4_1_3"/>
    <trip id="3.109" depart="2454.50" from="road_0_3_0" to="road_1_4_1"/>
    <trip id="3.110" depart="2455.00" from="road_5_4_2" to="road_3_4_1"/>
    <trip id="3.111" depart="2455.50" from="road_3_0_1" to="road_4_1_3"/>
    <trip id="3.112" depart="2456.00" from="road_0_1_0" to="road_3_4_1"/>
    <trip id="3.113" depart="2456.50" from="road_3_0_1" to="road_4_3_0"/>
    <trip id="3.114" depart="2457.00" from="road_0_3_0" to="road_4_4_1"/>
    <trip id="3.115" depart="2457.50" from="road_0_2_0" to="road_1_2_2"/>
    <trip id="3.116" depart="2458.00" from="road_3_5_3" to="road_4_1_0"/>
    <trip id="3.117" depart="2458.50" from="road_0_4_0" to="road_1_1_3"/>
    <trip id="3.118" depart="2459.00" from="road_5_3_2" to="road_1_3_2"/>
    <trip id="3.119" depart="2459.50" from="road_3_5_3" to="road_3_4_1"/>
    <trip id="3.120" depart="2460.00" from="road_2_0_1" to="road_3_4_1"/>
    <trip id="3.121" depart="2460.50" from="road_3_0_1" to="road_4_4_0"/>
    <trip id="3.122" depart="2461.00" from="road_0_4_0" to="road_4_1_3"/>
    <trip id="3.123" depart="2461.50" from="road_0_4_0" to="road_2_1_3"/>
    <trip id="3.124" depart="2462.00" from="road_4_0_1" to="road_1_4_1"/>
    <trip id="3.125" depart="2462.50" from="road_1_5_3" to="road_4_2_0"/>
    <trip id="3.126" depart="2463.00" from="road_0_2_0" to="road_2_4_1"/>
    <trip id="3.127" depart="2463.50" from="road_5_4_2" to="road_4_4_1"/>
    <trip id="3.128" depart="2464.00" from="road_0_2_0" to="road_1_3_2"/>
    <trip id="3.129" depart="2464.50" from="road_1_0_1" to="road_4_4_0"/>
    <trip id="3.130" depart="2465.00" from="road_5_3_2" to="road_4_4_0"/>
    <trip id="3.131" depart="2465.50" from="road_1_5_3" to="road_1_2_2"/>
    <trip id="3.132" depart="2466.00" from="road_5_2_2" to="road_4_1_3"/>
    <trip id="3.133" depart="2466.50" from="road_3_5_3" to="road_4_4_1"/>
    <trip id="3.134" depart="2467.00" from="road_4_0_1" to="road_1_1_2"/>
    <trip id="3.135" depart="2467.50" from="road_5_2_2" to="road_1_4_1"/>
    <trip id="3.136" depart="2468.00" from="road_4_0_1" to="road_4_4_1"/>
    <trip id="3.137" depart="2468.50" from="road_0_3_0" to="road_1_1_3"/>
    <trip id="3.138" depart="2469.00" from="road_0_2_0" to="road_3_1_3"/>
    <trip id="3.139" depart="2469.50" from="road_1_0_1" to="road_3_4_1"/>
    <trip id="3.140" depart="2470.00" from="road_4_5_3" to="road_1_3_2"/>
    <trip id="3.141" depart="2470.50" from="road_4_0_1" to="road_1_4_1"/>
    <trip id="3.142" depart="2471.00" from="road_2_5_3" to="road_4_4_0"/>
    <trip id="3.143" depart="2471.50" from="road_5_2_2" to="road_1_1_3"/>
    <trip id="3.144" depart="2472.00" from="road_2_0_1" to="road_1_4_1"/>
    <trip id="3.145" depart="2472.50" from="road_0_1_0" to="road_4_2_0"/>
    <trip id="3.146" depart="2473.00" from="road_4_0_1" to="road_1_4_1"/>
    <trip id="3.147" depart="2473.50" from="road_4_5_3" to="road_3_1_3"/>
    <trip id="3.148" depart="2474.00" from="road_2_0_1" to="road_1_1_2"/>
    <trip id="3.149" depart="2474.50" from="road_0_2_0" to="road_4_4_0"/>
    <trip id="3.150" depart="2475.00" from="road_5_3_2" to="road_3_1_3"/>
    <trip id="3.151" depart="2475.50" from="road_5_2_2" to="road_3_4_1"/>
    <trip id="3.152" depart="2476.00" from="road_0_3_0" to="road_1_2_2"/>
    <trip id="3.153" depart="2476.50" from="road_1_0_1" to="road_4_4_0"/>
    <trip id="3.154" depart="2477.00" from="road_5_1_2" to="road_4_3_0"/>
    <trip id="3.155" depart="2477.50" from="road_5_3_2" to="road_1_3_2"/>
    <trip id="3.156" depart="2478.00" from="road_0_4_0" to="road_1_1_3"/>
    <trip id="3.157" depart="2478.50" from="road_5_1_2" to="road_4_4_0"/>
    <trip id="3.158" depart="2479.00" from="road_2_0_1" to="road_3_4_1"/>
    <trip id="3.159" depart="2479.50" from="road_0_3_0" to="road_4_4_0"/>
    <trip id="3.160" depart="2480.00" from="road_5_2_2" to="road_4_4_1"/>
    <trip id="3.161" depart="2480.50" from="road_5_1_2" to="road_4_4_0"/>
    <trip id="3.162" depart="2481.00" from="road_0_1_0" to="road_4_1_3"/>
    <trip id="3.163" depart="2481.50" from="road_1_5_3" to="road_4_4_0"/>
    <trip id="3.164" depart="2482.00" from="road_5_1_2" to="road_4_3_0"/>
    <trip id="3.165" depart="2482.50" from="road_5_1_2" to="road_1_4_1"/>
    <trip id="3.166" depart="2483.00" from="road_5_1_2" to="road_1_1_3"/>
    <trip id="3.167" depart="2483.50" from="road_5_2_2" to="road_4_3_0"/>
    <trip id="3.168" depart="2484.00" from="road_0_4_0" to="road_4_3_0"/>
    <trip id="3.169" depart="2484.50" from="road_2_5_3" to="road_1_4_1"/>
    <trip id="3.170" depart="2485.00" from="road_5_1_2" to="road_1_3_2"/>
    <trip id="3.171" depart="2485.50" from="road_0_1_0" to="road_1_3_2"/>
    <trip id="3.172" depart="2486.00" from="road_1_5_3" to="road_4_3_0"/>
    <trip id="3.173" depart="2486.50" from="road_5_4_2" to="road_1_4_1"/>
    <trip id="3.174" depart="2487.00" from="road_4_0_1" to="road_2_1_3"/>
    <trip id="3.175" depart="2487.50" from="road_5_4_2" to="road_3_1_3"/>
    <trip id="3.176" depart="2488.00" from="road_5_4_2" to="road_1_1_3"/>
    <trip id="3.177" depart="2488.50" from="road_5_4_2" to="road_1_2_2"/>
    <trip id="3.178" depart="2489.00" from="road_5_4_2" to="road_1_4_1"/>
    <trip id="3.179" depart="2489.50" from="road_0_2_0" to="road_2_1_3"/>
    <trip id="3.180" depart="2490.00" from="road_4_5_3" to="road_1_4_2"/>
    <trip id="3.181" depart="2490.50" from="road_3_5_3" to="road_3_1_3"/>
    <trip id="3.182" depart="2491.00" from="road_2_0_1" to="road_3_4_1"/>
    <trip id="3.183" depart="2491.50" from="road_1_0_1" to="road_4_1_3"/>
    <trip id="3.184" depart="2492.00" from="road_0_1_0" to="road_4_4_0"/>
    <trip id="3.185" depart="2492.50" from="road_3_0_1" to="road_4_1_3"/>
    <trip id="3.186" depart="2493.00" from="road_4_5_3" to="road_4_1_0"/>
    <trip id="3.187" depart="2493.50" from="road_1_5_3" to="road_1_1_3"/>
    <trip id="3.188" depart="2494.00" from="road_4_0_1" to="road_1_4_2"/>
    <trip id="3.189" depart="2494.50" from="road_1_5_3" to="road_4_3_0"/>
    <trip id="3.190" depart="2495.00" from="road_4_5_3" to="road_1_4_1"/>
    <trip id="3.191" depart="2495.50" from="road_1_0_1" to="road_2_1_3"/>
    <trip id="3.192" depart="2496.00" from="road_2_0_1" to="road_1_4_1"/>
    <trip id="3.193" depart="2496.50" from="road_0_3_0" to="road_2_1_3"/>
    <trip id="3.194" depart="2497.00" from="road_5_4_2" to="road_4_1_0"/>
    <trip id="3.195" depart="2497.50" from="road_5_3_2" to="road_3_4_1"/>
    <trip id="3.196" depart="2498.00" from="road_1_0_1" to="road_3_1_3"/>
    <trip id="3.197" depart="2498.50" from="road_0_1_0" to="road_1_4_1"/>
    <trip id="3.198" depart="2499.00" from="road_2_0_1" to="road_3_4_1"/>
    <trip id="3.199" depart="2499.50" from="road_4_0_1" to="road_2_4_1"/>
    <trip id="3.200" depart="2500.00" from="road_2_5_3" to="road_1_3_2"/>
    <trip id="3.201" depart="2500.50" from="road_2_5_3" to="road_4_4_0"/>
    <trip id="3.202" depart="2501.00" from="road_5_1_2" to="road_1_2_2"/>
    <trip id="3.203" depart="2501.50" from="road_0_2_0" to="road_3_1_3"/>
    <trip id="3.204" depart="2502.00" from="road_4_0_1" to="road_1_4_2"/>
    <trip id="3.205" depart="2502.50" from="road_5_2_2" to="road_4_2_0"/>
    <trip id="3.206" depart="2503.00" from="road_4_0_1" to="road_1_3_2"/>
    <trip id="3.207" depart="2503.50" from="road_0_4_0" to="road_1_1_2"/>
    <trip id="3.208" depart="2504.00" from="road_0_4_0" to="road_2_4_1"/>
    <trip id="3.209" depart="2504.50" from="road_5_2_2" to="road_1_1_3"/>
    <trip id="3.210" depart="2505.00" from="road_2_0_1" to="road_4_1_0"/>
    <trip id="3.211" depart="2505.50" from="road_0_4_0" to="road_4_1_3"/>
    <trip id="3.212" depart="2506.00" from="road_2_5_3" to="road_1_3_2"/>
    <trip id="3.213" depart="2506.50" from="road_4_0_1" to="road_1_1_2"/>
    <trip id="3.214" depart="2507.00" from="road_5_1_2" to="road_4_2_0"/>
    <trip id="3.215" depart="2507.50" from="road_0_2_0" to="road_2_1_3"/>
    <trip id="3.216" depart="2508.00" from="road_0_3_0" to="road_4_4_1"/>
    <trip id="3.217" depart="2508.50" from="road_3_0_1" to="road_1_1_2"/>
    <trip id="3.218" depart="2509.00" from="road_0_4_0" to="road_4_3_0"/>
    <trip id="3.219" depart="2509.50" from="road_2_5_3" to="road_4_2_0"/>
    <trip id="3.220" depart="2510.00" from="road_4_0_1" to="road_4_4_1"/>
    <trip id="3.221" depart="2510.50" from="road_3_5_3" to="road_4_4_1"/>
    <trip id="3.222" depart="2511.00" from="road_5_3_2" to="road_3_4_1"/>
    <trip id="3.223" depart="2511.50" from="road_4_5_3" to="road_3_1_3"/>
    <trip id="3.224" depart="2512.00" from="road_5_2_2" to="road_3_1_3"/>
    <trip id="3.225" depart="2512.50" from="road_5_3_2" to="road_4_1_3"/>
    <trip id="3.226" depart="2513.00" from="road_2_5_3" to="road_1_4_1"/>
    <trip id="3.227" depart="2513.50" from="road_0_4_0" to="road_4_1_0"/>
    <trip id="3.228" depart="2514.00" from="road_5_1_2" to="road_3_1_3"/>
    <trip id="3.229" depart="2514.50" from="road_4_0_1" to="road_1_4_1"/>
    <trip id="3.230" depart="2515.00" from="road_0_2_0" to="road_1_4_1"/>
    <trip id="3.231" depart="2515.50" from="road_1_0_1" to="road_1_4_2"/>
    <trip id="3.232" depart="2516.00" from="road_3_0_1" to="road_1_2_2"/>
    <trip id="3.233" depart="2516.50" from="road_0_4_0" to="road_4_1_3"/>
    <trip id="3.234" depart="2517.00" from="road_4_5_3" to="road_1_1_3"/>
    <trip id="3.235" depart="2517.50" from="road_2_0_1" to="road_3_1_3"/>
    <trip id="3.236" depart="2518.00" from="road_2_0_1" to="road_1_3_2"/>
    <trip id="3.237" depart="2518.50" from="road_2_0_1" to="road_4_4_0"/>
    <trip id="3.238" depart="2519.00" from="road_3_5_3" to="road_4_1_3"/>
    <trip id="3.239" depart="2519.50" from="road_5_2_2" to="road_4_2_0"/>
    <trip id="3.240" depart="2520.00" from="road_2_0_1" to="road_1_1_2"/>
    <trip id="3.241" depart="2520.50" from="road_1_5_3" to="road_4_2_0"/>
    <trip id="3.242" depart="2521.00" from="road_5_2_2" to="road_4_4_1"/>
    <trip id="3.243" depart="2521.50" from="road_2_0_1" to="road_4_1_3"/>
    <trip id="3.244" depart="2522.00" from="road_3_0_1" to="road_3_4_1"/>
    <trip id="3.245" depart="2522.50" from="road_0_4_0" to="road_1_3_2"/>
    <trip id="3.246" depart="2523.00" from="road_2_0_1" to="road_1_1_2"/>
    <trip id="3.247" depart="2523.50" from="road_1_5_3" to="road_4_1_0"/>
    <trip id="3.248" depart="2524.00" from="road_2_0_1" to="road_1_2_2"/>
    <trip id="3.249" depart="2524.50" from="road_2_5_3" to="road_1_2_2"/>
    <trip id="3.250" depart="2525.00" from="road_3_5_3" to="road_1_1_2"/>
    <trip id="3.251" depart="2525.50" from="road_2_0_1" to="road_3_4_1"/>
    <trip id="3.252" depart="2526.00" from="road_0_1_0" to="road_4_1_0"/>
    <trip id="3.253" depart="2526.50" from="road_0_3_0" to="road_2_4_1"/>
    <trip id="3.254" depart="2527.00" from="road_0_1_0" to="road_2_1_3"/>
    <trip id="3.255" depart="2527.50" from="road_0_4_0" to="road_1_4_2"/>
    <trip id="3.256" depart="2528.00" from="road_5_1_2" to="road_2_1_3"/>
    <trip id="3.257" depart="2528.50" from="road_5_1_2" to="road_4_3_0"/>
    <trip id="3.258" depart="2529.00" from="road_1_0_1" to="road_1_1_3"/>
    <trip id="3.259" depart="2529.50" from="road_0_1_0" to="road_3_1_3"/>
    <trip id="3.260" depart="2530.00" from="road_5_4_2" to="road_1_4_2"/>
    <trip id="3.261" depart="2530.50" from="road_4_0_1" to="road_4_2_0"/>
    <trip id="3.262" depart="2531.00" from="road_4_0_1" to="road_4_2_0"/>
    <trip id="3.263" depart="2531.50" from="road_5_4_2" to="road_1_3_2"/>
    <trip id="3.264" depart="2532.00" from="road_0_1_0" to="road_1_2_2"/>
    <trip id="3.265" depart="2532.50" from="road_0_3_0" to="road_4_1_0"/>
    <trip id="3.266" depart="2533.00" from="road_3_5_3" to="road_1_3_2"/>
    <trip id="3.267" depart="2533.50" from="road_4_5_3" to="road_4_2_0"/>
    <trip id="3.268" depart="2534.00" from="road_0_3_0" to="road_3_4_1"/>
    <trip id="3.269" depart="2534.50" from="road_4_5_3" to="road_1_1_3"/>
    <trip id="3.270" depart="2535.00" from="road_5_2_2" to="road_4_4_1"/>
    <trip id="3.271" depart="2535.50" from="road_0_2_0" to="road_1_1_2"/>
    <trip id="3.272" depart="2536.00" from="road_1_0_1" to="road_4_1_0"/>
    <trip id="3.273" depart="2536.50" from="road_5_4_2" to="road_2_1_3"/>
    <trip id="3.274" depart="2537.00" from="road_4_5_3" to="road_1_1_3"/>
    <trip id="3.275" depart="2537.50" from="road_4_5_3" to="road_4_1_0"/>
    <trip id="3.276" depart="2538.00" from="road_0_2_0" to="road_4_2_0"/>
    <trip id="3.277" depart="2538.50" from="road_5_2_2" to="road_3_4_1"/>
    <trip id="3.278" depart="2539.00" from="road_0_2_0" to="road_4_4_1"/>
    <trip id="3.279" depart="2539.50" from="road_5_1_2" to="road_1_4_2"/>
    <trip id="3.280" depart="2540.00" from="road_2_0_1" to="road_1_4_2"/>
    <trip id="3.281" depart="2540.50" from="road_3_0_1" to="road_1_4_2"/>
    <trip id="3.282" depart="2541.00" from="road_5_2_2" to="road_4_3_0"/>
    <trip id="3.283" depart="2541.50" from="road_0_2_0" to="road_4_4_1"/>
    <trip id="3.284" depart="2542.00" from="road_4_0_1" to="road_4_3_0"/>
    <trip id="3.285" depart="2542.50" from="road_4_5_3" to="road_2_1_3"/>
    <trip id="3.286" depart="2543.00" from="road_4_5_3" to="road_4_4_1"/>
    <trip id="3.287" depart="2543.50" from="road_1_0_1" to="road_4_2_0"/>
    <trip id="3.288" depart="2544.00" from="road_3_0_1" to="road_2_4_1"/>
    <trip id="3.289" depart="2544.50" from="road_2_0_1" to="road_4_1_3"/>
    <trip id="3.290" depart="2545.00" from="road_1_0_1" to="road_4_3_0"/>
    <trip id="3.291" depart="2545.50" from="road_5_2_2" to="road_1_1_3"/>
    <trip id="3.292" depart="2546.00" from="road_5_3_2" to="road_1_3_2"/>
    <trip id="3.293" depart="2546.50" from="road_2_5_3" to="road_3_4_1"/>
    <trip id="3.294" depart="2547.00" from="road_2_0_1" to="road_1_1_2"/>
    <trip id="3.295" depart="2547.50" from="road_5_2_2" to="road_1_2_2"/>
    <trip id="3.296" depart="2548.00" from="road_0_4_0" to="road_4_2_0"/>
    <trip id="3.297" depart="2548.50" from="road_1_5_3" to="road_4_4_0"/>
    <trip id="3.298" depart="2549.00" from="road_4_5_3" to="road_1_4_1"/>
    <trip id="3.299" depart="2549.50" from="road_0_1_0" to="road_4_4_1"/>
    <trip id="3.300" depart="2550.00" from="road_0_2_0" to="road_4_1_3"/>
    <trip id="3.301" depart="2550.50" from="road_2_5_3" to="road_4_2_0"/>
    <trip id="3.302" depart="2551.00" from="road_4_5_3" to="road_4_1_0"/>
    <trip id="3.303" depart="2551.50" from="road_2_5_3" to="road_4_2_0"/>
    <trip id="3.304" depart="2552.00" from="road_0_2_0" to="road_1_3_2"/>
    <trip id="3.305" depart="2552.50" from="road_4_5_3" to="road_1_4_1"/>
    <trip id="3.306" depart="2553.00" from="road_3_5_3" to="road_2_4_1"/>
    <trip id="3.307" depart="2553.50" from="road_3_0_1" to="road_2_1_3"/>
    <trip id="3.308" depart="2554.00" from="road_4_5_3" to="road_1_4_2"/>
    <trip id="3.309" depart="2554.50" from="road_4_5_3" to="road_1_4_1"/>
    <trip id="3.310" depart="2555.00" from="road_1_0_1" to="road_1_1_3"/>
    <trip id="3.311" depart="2555.50" from="road_0_4_0" to="road_1_1_3"/>
    <trip id="3.312" depart="2556.00" from="road_3_0_1" to="road_4_2_0"/>
    <trip id="3.313" depart="2556.50" from="road_0_3_0" to="road_1_3_2"/>
    <trip id="3.314" depart="2557.00" from="road_2_5_3" to="road_4_1_3"/>
    <trip id="3.315" depart="2557.50" from="road_5_4_2" to="road_3_1_3"/>
    <trip id="3.316" depart="2558.00" from="road_1_0_1" to="road_1_1_3"/>
    <trip id="3.317" depart="2558.50" from="road_0_4_0" to="road_1_3_2"/>
    <trip id="3.318" depart="2559.00" from="road_0_3_0" to="road_1_1_2"/>
    <trip id="3.319" depart="2559.50" from="road_3_0_1" to="road_1_4_1"/>
    <trip id="3.320" depart="2560.00" from="road_5_4_2" to="road_3_1_3"/>
    <trip id="3.321" depart="2560.50" from="road_4_5_3" to="road_1_2_2"/>
    <trip id="3.322" depart="2561.00" from="road_5_2_2" to="road_2_4_1"/>
    <trip id="3.323" depart="2561.50" from="road_5_2_2" to="road_3_4_1"/>
    <trip id="3.324" depart="2562.00" from="road_2_5_3" to="road_2_4_1"/>
    <trip id="3.325" depart="2562.50" from="road_0_3_0" to="road_1_1_2"/>
    <trip id="3.326" depart="2563.00" from="road_5_4_2" to="road_2_4_1"/>
    <trip id="3.327" depart="2563.50" from="road_5_2_2" to="road_2_1_3"/>
    <trip id="3.328" depart="2564.00" from="road_0_2_0" to="road_4_1_0"/>
    <trip id="3.329" depart="2564.50" from="road_0_1_0" to="road_1_2_2"/>
    <trip id="3.330" depart="2565.00" from="road_3_5_3" to="road_1_4_1"/>
    <trip id="3.331" depart="2565.50" from="road_5_4_2" to="road_1_1_3"/>
    <trip id="3.332" depart="2566.00" from="road_5_1_2" to="road_3_4_1"/>
    <trip id="3.333" depart="2566.50" from="road_5_1_2" to="road_1_3_2"/>
    <trip id="3.334" depart="2567.00" from="road_3_0_1" to="road_2_4_1"/>
    <trip id="3.335" depart="2567.50" from="road_2_5_3" to="road_4_3_0"/>
    <trip id="3.336" depart="2568.00" from="road_5_4_2" to="road_1_4_1"/>
    <trip id="3.337" depart="2568.50" from="road_3_5_3" to="road_3_4_1"/>
    <trip id="3.338" depart="2569.00" from="road_4_5_3" to="road_4_4_1"/>
    <trip id="3.339" depart="2569.50" from="road_0_4_0" to="road_1_3_2"/>
    <trip id="3.340" depart="2570.00" from="road_4_0_1" to="road_1_2_2"/>
    <trip id="3.341" depart="2570.50" from="road_0_3_0" to="road_1_1_3"/>
    <trip id="3.342" depart="2571.00" from="road_0_1_0" to="road_2_4_1"/>
    <trip id="3.343" depart="2571.50" from="road_3_5_3" to="road_1_4_1"/>
    <trip id="3.344" depart="2572.00" from="road_0_4_0" to="road_4_1_3"/>
    <trip id="3.345" depart="2572.50" from="road_4_5_3" to="road_2_4_1"/>
    <trip id="3.346" depart="2573.00" from="road_4_0_1" to="road_4_4_0"/>
    <trip id="3.347" depart="2573.50" from="road_5_1_2" to="road_3_4_2"/>
    <trip id="3.348" depart="2574.00" from="road_4_0_1" to="road_4_4_0"/>
    <trip id="3.349" depart="2574.50" from="road_2_0_1" to="road_3_1_3"/>
    <trip id="3.350" depart="2575.00" from="road_4_0_1" to="road_4_4_0"/>
    <trip id="3.351" depart="2575.50" from="road_5_2_2" to="road_1_1_3"/>
    <trip id="3.352" depart="2576.00" from="road_0_3_0" to="road_1_4_1"/>
    <trip id="3.353" depart="2576.50" from="road_4_5_3" to="road_3_4_1"/>
    <trip id="3.354" depart="2577.00" from="road_1_0_1" to="road_1_1_3"/>
    <trip id="3.355" depart="2577.50" from="road_4_5_3" to="road_4_1_3"/>
    <trip id="3.356" depart="2578.00" from="road_5_4_2" to="road_3_1_3"/>
    <trip id="3.357" depart="2578.50" from="road_2_5_3" to="road_1_1_3"/>
    <trip id="3.358" depart="2579.00" from="road_0_1_0" to="road_2_1_3"/>
    <trip id="3.359" depart="2579.50" from="road_1_5_3" to="road_1_4_1"/>
    <trip id="3.360" depart="2580.00" from="road_0_2_0" to="road_4_4_1"/>
    <trip id="3.361" depart="2580.50" from="road_5_2_2" to="road_3_4_1"/>
    <trip id="3.362" depart="2581.00" from="road_5_4_2" to="road_4_4_1"/>
    <trip id="3.363" depart="2581.50" from="road_4_0_1" to="road_1_4_1"/>
    <trip id="3.364" depart="2582.00" from="road_0_1_0" to="road_4_2_0"/>
    <trip id="3.365" depart="2582.50" from="road_2_5_3" to="road_4_1_0"/>
    <trip id="3.366" depart="2583.00" from="road_5_3_2" to="road_1_2_2"/>
    <trip id="3.367" depart="2583.50" from="road_3_5_3" to="road_4_1_0"/>
    <trip id="3.368" depart="2584.00" from="road_2_5_3" to="road_1_1_3"/>
    <trip id="3.369" depart="2584.50" from="road_1_5_3" to="road_1_4_2"/>
    <trip id="3.370" depart="2585.00" from="road_4_0_1" to="road_4_3_0"/>
    <trip id="3.371" depart="2585.50" from="road_1_5_3" to="road_4_1_3"/>
    <trip id="3.372" depart="2586.00" from="road_1_0_1" to="road_4_4_1"/>
    <trip id="3.373" depart="2586.50" from="road_5_2_2" to="road_3_1_3"/>
    <trip id="3.374" depart="2587.00" from="road_2_5_3" to="road_1_4_2"/>
    <trip id="3.375" depart="2587.50" from="road_1_5_3" to="road_4_4_1"/>
    <trip id="3.376" depart="2588.00" from="road_2_0_1" to="road_3_1_3"/>
    <trip id="3.377" depart="2588.50" from="road_5_4_2" to="road_4_1_0"/>
    <trip id="3.378" depart="2589.00" from="road_3_0_1" to="road_2_1_3"/>
    <trip id="3.379" depart="2589.50" from="road_0_4_0" to="road_1_4_2"/>
    <trip id="3.380" depart="2590.00" from="road_5_1_2" to="road_4_1_0"/>
    <trip id="3.381" depart="2590.50" from="road_5_1_2" to="road_1_3_2"/>
    <trip id="3.382" depart="2591.00" from="road_3_0_1" to="road_4_4_0"/>
    <trip id="3.383" depart="2591.50" from="road_2_5_3" to="road_4_1_3"/>
    <trip id="3.384" depart="2592.00" from="road_0_2_0" to="road_4_4_1"/>
    <trip id="3.385" depart="2592.50" from="road_3_5_3" to="road_1_3_2"/>
    <trip id="3.386" depart="2593.00" from="road_0_3_0" to="road_3_1_3"/>
    <trip id="3.387" depart="2593.50" from="road_3_0_1" to="road_1_1_3"/>
    <trip id="3.388" depart="2594.00" from="road_5_4_2" to="road_4_4_0"/>
    <trip id="3.389" depart="2594.50" from="road_2_5_3" to="road_1_1_3"/>
    <trip id="3.390" depart="2595.00" from="road_5_2_2" to="road_2_4_1"/>
    <trip id="3.391" depart="2595.50" from="road_4_5_3" to="road_3_1_3"/>
    <trip id="3.392" depart="2596.00" from="road_1_0_1" to="road_4_3_0"/>
    <trip id="3.393" depart="2596.50" from="road_5_4_2" to="road_1_3_2"/>
    <trip id="3.394" depart="2597.00" from="road_3_0_1" to="road_2_1_3"/>
    <trip id="3.395" depart="2597.50" from="road_5_3_2" to="road_3_1_3"/>