<?xml version="1.0" encoding="UTF-8"?>
<!-- generated on 2024-08-28 10:26:07.506120 by randomTrips.py v1_11_0+0000-d32ff7d52a3
  options: -n SUMO_roadnet_4_4_4_phase_Right_Green_turn_30.net.xml -b 0 -e 600 <doubleminus>period 2 <doubleminus>fringe-factor 7200 -L -o uniform_1.trips.xml
-->
<routes xmlns:xsi="http://www.w3.org/2001/XMLSchema-instance" xsi:noNamespaceSchemaLocation="http://sumo.dlr.de/xsd/routes_file.xsd">
    <trip id="1_0" depart="0.00" from="road_4_0_1" to="road_1_1_2"/>
    <trip id="1_1" depart="2.00" from="road_1_0_1" to="road_1_3_2"/>
    <trip id="1_2" depart="4.00" from="road_4_5_3" to="road_4_1_0"/>
    <trip id="1_3" depart="6.00" from="road_5_3_2" to="road_1_1_3"/>
    <trip id="1_4" depart="8.00" from="road_2_0_1" to="road_1_1_2"/>
    <trip id="1_5" depart="10.00" from="road_0_4_0" to="road_3_1_3"/>
    <trip id="1_6" depart="12.00" from="road_0_1_0" to="road_1_3_2"/>
    <trip id="1_7" depart="14.00" from="road_4_0_1" to="road_3_1_3"/>
    <trip id="1_8" depart="16.00" from="road_0_4_0" to="road_3_4_1"/>
    <trip id="1_9" depart="18.00" from="road_5_1_2" to="road_1_1_2"/>
    <trip id="1_10" depart="20.00" from="road_5_1_2" to="road_4_1_3"/>
    <trip id="1_11" depart="22.00" from="road_1_5_3" to="road_1_2_2"/>
    <trip id="1_12" depart="24.00" from="road_5_4_2" to="road_1_4_2"/>
    <trip id="1_13" depart="26.00" from="road_0_2_0" to="road_1_1_3"/>
    <trip id="1_14" depart="28.00" from="road_5_2_2" to="road_3_4_1"/>
    <trip id="1_15" depart="30.00" from="road_5_1_2" to="road_4_1_3"/>
    <trip id="1_16" depart="32.00" from="road_3_0_1" to="road_4_4_1"/>
    <trip id="1_17" depart="34.00" from="road_2_0_1" to="road_3_1_3"/>
    <trip id="1_18" depart="36.00" from="road_5_2_2" to="road_3_4_1"/>
    <trip id="1_19" depart="38.00" from="road_5_2_2" to="road_3_4_1"/>
    <trip id="1_20" depart="40.00" from="road_4_5_3" to="road_1_1_2"/>
    <trip id="1_21" depart="42.00" from="road_0_4_0" to="road_1_4_1"/>
    <trip id="1_22" depart="44.00" from="road_0_2_0" to="road_1_3_2"/>
    <trip id="1_23" depart="46.00" from="road_0_2_0" to="road_1_4_1"/>
    <trip id="1_24" depart="48.00" from="road_4_0_1" to="road_1_4_2"/>
    <trip id="1_25" depart="50.00" from="road_1_5_3" to="road_1_3_2"/>
    <trip id="1_26" depart="52.00" from="road_1_0_1" to="road_4_4_0"/>
    <trip id="1_27" depart="54.00" from="road_4_0_1" to="road_3_4_1"/>
    <trip id="1_28" depart="56.00" from="road_0_3_0" to="road_4_1_3"/>
    <trip id="1_29" depart="58.00" from="road_0_3_0" to="road_2_1_3"/>
    <trip id="1_30" depart="60.00" from="road_5_4_2" to="road_4_1_0"/>
    <trip id="1_31" depart="62.00" from="road_3_0_1" to="road_4_1_0"/>
    <trip id="1_32" depart="64.00" from="road_5_2_2" to="road_4_2_0"/>
    <trip id="1_33" depart="66.00" from="road_0_4_0" to="road_1_1_2"/>
    <trip id="1_34" depart="68.00" from="road_1_5_3" to="road_1_4_1"/>
    <trip id="1_35" depart="70.00" from="road_0_4_0" to="road_4_4_1"/>
    <trip id="1_36" depart="72.00" from="road_5_3_2" to="road_1_4_2"/>
    <trip id="1_37" depart="74.00" from="road_4_0_1" to="road_2_1_3"/>
    <trip id="1_38" depart="76.00" from="road_5_3_2" to="road_2_4_1"/>
    <trip id="1_39" depart="78.00" from="road_1_0_1" to="road_1_3_2"/>
    <trip id="1_40" depart="80.00" from="road_3_0_1" to="road_1_4_1"/>
    <trip id="1_41" depart="82.00" from="road_3_5_3" to="road_4_4_0"/>
    <trip id="1_42" depart="84.00" from="road_2_0_1" to="road_1_3_2"/>
    <trip id="1_43" depart="86.00" from="road_5_4_2" to="road_3_1_3"/>
    <trip id="1_44" depart="88.00" from="road_0_2_0" to="road_1_1_2"/>
    <trip id="1_45" depart="90.00" from="road_0_2_0" to="road_4_1_0"/>
    <trip id="1_46" depart="92.00" from="road_5_1_2" to="road_2_1_3"/>
    <trip id="1_47" depart="94.00" from="road_0_2_0" to="road_2_1_3"/>
    <trip id="1_48" depart="96.00" from="road_5_4_2" to="road_3_1_3"/>
    <trip id="1_49" depart="98.00" from="road_5_4_2" to="road_4_3_0"/>
    <trip id="1_50" depart="100.00" from="road_0_1_0" to="road_4_1_3"/>
    <trip id="1_51" depart="102.00" from="road_4_0_1" to="road_3_1_3"/>
    <trip id="1_52" depart="104.00" from="road_1_0_1" to="road_4_1_0"/>
    <trip id="1_53" depart="106.00" from="road_0_2_0" to="road_2_1_3"/>
    <trip id="1_54" depart="108.00" from="road_2_5_3" to="road_4_4_1"/>
    <trip id="1_55" depart="110.00" from="road_5_3_2" to="road_1_4_1"/>
    <trip id="1_56" depart="112.00" from="road_3_0_1" to="road_1_2_2"/>
    <trip id="1_57" depart="114.00" from="road_5_3_2" to="road_4_3_0"/>
    <trip id="1_58" depart="116.00" from="road_1_0_1" to="road_4_1_0"/>
    <trip id="1_59" depart="118.00" from="road_3_5_3" to="road_1_2_2"/>
    <trip id="1_60" depart="120.00" from="road_5_1_2" to="road_3_1_3"/>
    <trip id="1_61" depart="122.00" from="road_5_1_2" to="road_3_1_3"/>
    <trip id="1_62" depart="124.00" from="road_0_1_0" to="road_1_4_2"/>
    <trip id="1_63" depart="126.00" from="road_0_1_0" to="road_4_4_0"/>
    <trip id="1_64" depart="128.00" from="road_5_3_2" to="road_4_3_0"/>
    <trip id="1_65" depart="130.00" from="road_1_0_1" to="road_1_1_2"/>
    <trip id="1_66" depart="132.00" from="road_5_3_2" to="road_4_4_1"/>
    <trip id="1_67" depart="134.00" from="road_0_2_0" to="road_2_4_1"/>
    <trip id="1_68" depart="136.00" from="road_0_2_0" to="road_4_2_0"/>
    <trip id="1_69" depart="138.00" from="road_5_1_2" to="road_1_2_2"/>
    <trip id="1_70" depart="140.00" from="road_2_5_3" to="road_3_1_3"/>
    <trip id="1_71" depart="142.00" from="road_1_0_1" to="road_4_3_0"/>
    <trip id="1_72" depart="144.00" from="road_2_0_1" to="road_1_3_2"/>
    <trip id="1_73" depart="146.00" from="road_3_0_1" to="road_4_1_3"/>
    <trip id="1_74" depart="148.00" from="road_0_4_0" to="road_1_4_1"/>
    <trip id="1_75" depart="150.00" from="road_5_4_2" to="road_4_1_0"/>
    <trip id="1_76" depart="152.00" from="road_2_5_3" to="road_3_1_3"/>
    <trip id="1_77" depart="154.00" from="road_0_2_0" to="road_1_3_2"/>
    <trip id="1_78" depart="156.00" from="road_1_5_3" to="road_3_4_1"/>
    <trip id="1_79" depart="158.00" from="road_0_4_0" to="road_1_3_2"/>
    <trip id="1_80" depart="160.00" from="road_0_2_0" to="road_4_1_0"/>
    <trip id="1_81" depart="162.00" from="road_0_4_0" to="road_4_4_0"/>
    <trip id="1_82" depart="164.00" from="road_5_2_2" to="road_1_1_3"/>
    <trip id="1_83" depart="166.00" from="road_0_4_0" to="road_4_1_0"/>
    <trip id="1_84" depart="168.00" from="road_0_4_0" to="road_1_2_2"/>
    <trip id="1_85" depart="170.00" from="road_5_3_2" to="road_3_4_1"/>
    <trip id="1_86" depart="172.00" from="road_2_5_3" to="road_4_2_0"/>
    <trip id="1_87" depart="174.00" from="road_5_1_2" to="road_1_3_2"/>
    <trip id="1_88" depart="176.00" from="road_0_2_0" to="road_2_1_3"/>
    <trip id="1_89" depart="178.00" from="road_2_0_1" to="road_2_4_1"/>
    <trip id="1_90" depart="180.00" from="road_4_5_3" to="road_4_1_0"/>
    <trip id="1_91" depart="182.00" from="road_5_4_2" to="road_1_1_3"/>
    <trip id="1_92" depart="184.00" from="road_2_0_1" to="road_1_4_2"/>
    <trip id="1_93" depart="186.00" from="road_5_2_2" to="road_1_3_2"/>
    <trip id="1_94" depart="188.00" from="road_0_4_0" to="road_2_4_1"/>
    <trip id="1_95" depart="190.00" from="road_2_0_1" to="road_1_4_1"/>
    <trip id="1_96" depart="192.00" from="road_0_4_0" to="road_4_4_0"/>
    <trip id="1_97" depart="194.00" from="road_2_5_3" to="road_4_3_0"/>
    <trip id="1_98" depart="196.00" from="road_3_0_1" to="road_1_1_2"/>
    <trip id="1_99" depart="198.00" from="road_5_4_2" to="road_4_3_0"/>
    <trip id="1_100" depart="200.00" from="road_5_4_2" to="road_4_4_0"/>
    <trip id="1_101" depart="202.00" from="road_5_2_2" to="road_1_2_2"/>
    <trip id="1_102" depart="204.00" from="road_2_5_3" to="road_1_3_2"/>
    <trip id="1_103" depart="206.00" from="road_2_0_1" to="road_1_1_2"/>
    <trip id="1_104" depart="208.00" from="road_2_0_1" to="road_4_4_1"/>
    <trip id="1_105" depart="210.00" from="road_1_0_1" to="road_4_2_0"/>
    <trip id="1_106" depart="212.00" from="road_2_5_3" to="road_2_1_3"/>
    <trip id="1_107" depart="214.00" from="road_5_4_2" to="road_4_4_1"/>
    <trip id="1_108" depart="216.00" from="road_3_0_1" to="road_4_1_3"/>
    <trip id="1_109" depart="218.00" from="road_0_3_0" to="road_1_4_1"/>
    <trip id="1_110" depart="220.00" from="road_5_4_2" to="road_3_4_1"/>
    <trip id="1_111" depart="222.00" from="road_3_0_1" to="road_4_1_3"/>
    <trip id="1_112" depart="224.00" from="road_0_1_0" to="road_3_4_1"/>
    <trip id="1_113" depart="226.00" from="road_3_0_1" to="road_4_3_0"/>
    <trip id="1_114" depart="228.00" from="road_0_3_0" to="road_4_4_1"/>
    <trip id="1_115" depart="230.00" from="road_0_2_0" to="road_1_2_2"/>
    <trip id="1_116" depart="232.00" from="road_3_5_3" to="road_4_1_0"/>
    <trip id="1_117" depart="234.00" from="road_0_4_0" to="road_1_1_3"/>
    <trip id="1_118" depart="236.00" from="road_5_3_2" to="road_1_3_2"/>
    <trip id="1_119" depart="238.00" from="road_3_5_3" to="road_3_4_1"/>
    <trip id="1_120" depart="240.00" from="road_2_0_1" to="road_3_4_1"/>
    <trip id="1_121" depart="242.00" from="road_3_0_1" to="road_4_4_0"/>
    <trip id="1_122" depart="244.00" from="road_0_4_0" to="road_4_1_3"/>
    <trip id="1_123" depart="246.00" from="road_0_4_0" to="road_2_1_3"/>
    <trip id="1_124" depart="248.00" from="road_4_0_1" to="road_1_4_1"/>
    <trip id="1_125" depart="250.00" from="road_1_5_3" to="road_4_2_0"/>
    <trip id="1_126" depart="252.00" from="road_0_2_0" to="road_2_4_1"/>
    <trip id="1_127" depart="254.00" from="road_5_4_2" to="road_4_4_1"/>
    <trip id="1_128" depart="256.00" from="road_0_2_0" to="road_1_3_2"/>
    <trip id="1_129" depart="258.00" from="road_1_0_1" to="road_4_4_0"/>
    <trip id="1_130" depart="260.00" from="road_5_3_2" to="road_4_4_0"/>
    <trip id="1_131" depart="262.00" from="road_1_5_3" to="road_1_2_2"/>
    <trip id="1_132" depart="264.00" from="road_5_2_2" to="road_4_1_3"/>
    <trip id="1_133" depart="266.00" from="road_3_5_3" to="road_4_4_1"/>
    <trip id="1_134" depart="268.00" from="road_4_0_1" to="road_1_1_2"/>
    <trip id="1_135" depart="270.00" from="road_5_2_2" to="road_1_4_1"/>
    <trip id="1_136" depart="272.00" from="road_4_0_1" to="road_4_4_1"/>
    <trip id="1_137" depart="274.00" from="road_0_3_0" to="road_1_1_3"/>
    <trip id="1_138" depart="276.00" from="road_0_2_0" to="road_3_1_3"/>
    <trip id="1_139" depart="278.00" from="road_1_0_1" to="road_3_4_1"/>
    <trip id="1_140" depart="280.00" from="road_4_5_3" to="road_1_3_2"/>
    <trip id="1_141" depart="282.00" from="road_4_0_1" to="road_1_4_1"/>
    <trip id="1_142" depart="284.00" from="road_2_5_3" to="road_4_4_0"/>
    <trip id="1_143" depart="286.00" from="road_5_2_2" to="road_1_1_3"/>
    <trip id="1_144" depart="288.00" from="road_2_0_1" to="road_1_4_1"/>
    <trip id="1_145" depart="290.00" from="road_0_1_0" to="road_4_2_0"/>
    <trip id="1_146" depart="292.00" from="road_4_0_1" to="road_1_4_1"/>
    <trip id="1_147" depart="294.00" from="road_4_5_3" to="road_3_1_3"/>
    <trip id="1_148" depart="296.00" from="road_2_0_1" to="road_1_1_2"/>
    <trip id="1_149" depart="298.00" from="road_0_2_0" to="road_4_4_0"/>
    <trip id="1_150" depart="300.00" from="road_5_3_2" to="road_3_1_3"/>
    <trip id="1_151" depart="302.00" from="road_5_2_2" to="road_3_4_1"/>
    <trip id="1_152" depart="304.00" from="road_0_3_0" to="road_1_2_2"/>
    <trip id="1_153" depart="306.00" from="road_1_0_1" to="road_4_4_0"/>
    <trip id="1_154" depart="308.00" from="road_5_1_2" to="road_4_3_0"/>
    <trip id="1_155" depart="310.00" from="road_5_3_2" to="road_1_3_2"/>
    <trip id="1_156" depart="312.00" from="road_0_4_0" to="road_1_1_3"/>
    <trip id="1_157" depart="314.00" from="road_5_1_2" to="road_4_4_0"/>
    <trip id="1_158" depart="316.00" from="road_2_0_1" to="road_3_4_1"/>
    <trip id="1_159" depart="318.00" from="road_0_3_0" to="road_4_4_0"/>
    <trip id="1_160" depart="320.00" from="road_5_2_2" to="road_4_4_1"/>
    <trip id="1_161" depart="322.00" from="road_5_1_2" to="road_4_4_0"/>
    <trip id="1_162" depart="324.00" from="road_0_1_0" to="road_4_1_3"/>
    <trip id="1_163" depart="326.00" from="road_1_5_3" to="road_4_4_0"/>
    <trip id="1_164" depart="328.00" from="road_5_1_2" to="road_4_3_0"/>
    <trip id="1_165" depart="330.00" from="road_5_1_2" to="road_1_4_1"/>
    <trip id="1_166" depart="332.00" from="road_5_1_2" to="road_1_1_3"/>
    <trip id="1_167" depart="334.00" from="road_5_2_2" to="road_4_3_0"/>
    <trip id="1_168" depart="336.00" from="road_0_4_0" to="road_4_3_0"/>
    <trip id="1_169" depart="338.00" from="road_2_5_3" to="road_1_4_1"/>
    <trip id="1_170" depart="340.00" from="road_5_1_2" to="road_1_3_2"/>
    <trip id="1_171" depart="342.00" from="road_0_1_0" to="road_1_3_2"/>
    <trip id="1_172" depart="344.00" from="road_1_5_3" to="road_4_3_0"/>
    <trip id="1_173" depart="346.00" from="road_5_4_2" to="road_1_4_1"/>
    <trip id="1_174" depart="348.00" from="road_4_0_1" to="road_2_1_3"/>
    <trip id="1_175" depart="350.00" from="road_5_4_2" to="road_3_1_3"/>
    <trip id="1_176" depart="352.00" from="road_5_4_2" to="road_1_1_3"/>
    <trip id="1_177" depart="354.00" from="road_5_4_2" to="road_1_2_2"/>
    <trip id="1_178" depart="356.00" from="road_5_4_2" to="road_1_4_1"/>
    <trip id="1_179" depart="358.00" from="road_0_2_0" to="road_2_1_3"/>
    <trip id="1_180" depart="360.00" from="road_4_5_3" to="road_1_4_2"/>
    <trip id="1_181" depart="362.00" from="road_3_5_3" to="road_3_1_3"/>
    <trip id="1_182" depart="364.00" from="road_2_0_1" to="road_3_4_1"/>
    <trip id="1_183" depart="366.00" from="road_1_0_1" to="road_4_1_3"/>
    <trip id="1_184" depart="368.00" from="road_0_1_0" to="road_4_4_0"/>
    <trip id="1_185" depart="370.00" from="road_3_0_1" to="road_4_1_3"/>
    <trip id="1_186" depart="372.00" from="road_4_5_3" to="road_4_1_0"/>
    <trip id="1_187" depart="374.00" from="road_1_5_3" to="road_1_1_3"/>
    <trip id="1_188" depart="376.00" from="road_4_0_1" to="road_1_4_2"/>
    <trip id="1_189" depart="378.00" from="road_1_5_3" to="road_4_3_0"/>
    <trip id="1_190" depart="380.00" from="road_4_5_3" to="road_1_4_1"/>
    <trip id="1_191" depart="382.00" from="road_1_0_1" to="road_2_1_3"/>
    <trip id="1_192" depart="384.00" from="road_2_0_1" to="road_1_4_1"/>
    <trip id="1_193" depart="386.00" from="road_0_3_0" to="road_2_1_3"/>
    <trip id="1_194" depart="388.00" from="road_5_4_2" to="road_4_1_0"/>
    <trip id="1_195" depart="390.00" from="road_5_3_2" to="road_3_4_1"/>
    <trip id="1_196" depart="392.00" from="road_1_0_1" to="road_3_1_3"/>
    <trip id="1_197" depart="394.00" from="road_0_1_0" to="road_1_4_1"/>
    <trip id="1_198" depart="396.00" from="road_2_0_1" to="road_3_4_1"/>
    <trip id="1_199" depart="398.00" from="road_4_0_1" to="road_2_4_1"/>
    <trip id="1_200" depart="400.00" from="road_2_5_3" to="road_1_3_2"/>
    <trip id="1_201" depart="402.00" from="road_2_5_3" to="road_4_4_0"/>
    <trip id="1_202" depart="404.00" from="road_5_1_2" to="road_1_2_2"/>
    <trip id="1_203" depart="406.00" from="road_0_2_0" to="road_3_1_3"/>
    <trip id="1_204" depart="408.00" from="road_4_0_1" to="road_1_4_2"/>
    <trip id="1_205" depart="410.00" from="road_5_2_2" to="road_4_2_0"/>
    <trip id="1_206" depart="412.00" from="road_4_0_1" to="road_1_3_2"/>
    <trip id="1_207" depart="414.00" from="road_0_4_0" to="road_1_1_2"/>
    <trip id="1_208" depart="416.00" from="road_0_4_0" to="road_2_4_1"/>
    <trip id="1_209" depart="418.00" from="road_5_2_2" to="road_1_1_3"/>
    <trip id="1_210" depart="420.00" from="road_2_0_1" to="road_4_1_0"/>
    <trip id="1_211" depart="422.00" from="road_0_4_0" to="road_4_1_3"/>
    <trip id="1_212" depart="424.00" from="road_2_5_3" to="road_1_3_2"/>
    <trip id="1_213" depart="426.00" from="road_4_0_1" to="road_1_1_2"/>
    <trip id="1_214" depart="428.00" from="road_5_1_2" to="road_4_2_0"/>
    <trip id="1_215" depart="430.00" from="road_0_2_0" to="road_2_1_3"/>
    <trip id="1_216" depart="432.00" from="road_0_3_0" to="road_4_4_1"/>
    <trip id="1_217" depart="434.00" from="road_3_0_1" to="road_1_1_2"/>
    <trip id="1_218" depart="436.00" from="road_0_4_0" to="road_4_3_0"/>
    <trip id="1_219" depart="438.00" from="road_2_5_3" to="road_4_2_0"/>
    <trip id="1_220" depart="440.00" from="road_4_0_1" to="road_4_4_1"/>
    <trip id="1_221" depart="442.00" from="road_3_5_3" to="road_4_4_1"/>
    <trip id="1_222" depart="444.00" from="road_5_3_2" to="road_3_4_1"/>
    <trip id="1_223" depart="446.00" from="road_4_5_3" to="road_3_1_3"/>
    <trip id="1_224" depart="448.00" from="road_5_2_2" to="road_3_1_3"/>
    <trip id="1_225" depart="450.00" from="road_5_3_2" to="road_4_1_3"/>
    <trip id="1_226" depart="452.00" from="road_2_5_3" to="road_1_4_1"/>
    <trip id="1_227" depart="454.00" from="road_0_4_0" to="road_4_1_0"/>
    <trip id="1_228" depart="456.00" from="road_5_1_2" to="road_3_1_3"/>
    <trip id="1_229" depart="458.00" from="road_4_0_1" to="road_1_4_1"/>
    <trip id="1_230" depart="460.00" from="road_0_2_0" to="road_1_4_1"/>
    <trip id="1_231" depart="462.00" from="road_1_0_1" to="road_1_4_2"/>
    <trip id="1_232" depart="464.00" from="road_3_0_1" to="road_1_2_2"/>
    <trip id="1_233" depart="466.00" from="road_0_4_0" to="road_4_1_3"/>
    <trip id="1_234" depart="468.00" from="road_4_5_3" to="road_1_1_3"/>
    <trip id="1_235" depart="470.00" from="road_2_0_1" to="road_3_1_3"/>
    <trip id="1_236" depart="472.00" from="road_2_0_1" to="road_1_3_2"/>
    <trip id="1_237" depart="474.00" from="road_2_0_1" to="road_4_4_0"/>
    <trip id="1_238" depart="476.00" from="road_3_5_3" to="road_4_1_3"/>
    <trip id="1_239" depart="478.00" from="road_5_2_2" to="road_4_2_0"/>
    <trip id="1_240" depart="480.00" from="road_2_0_1" to="road_1_1_2"/>
    <trip id="1_241" depart="482.00" from="road_1_5_3" to="road_4_2_0"/>
    <trip id="1_242" depart="484.00" from="road_5_2_2" to="road_4_4_1"/>
    <trip id="1_243" depart="486.00" from="road_2_0_1" to="road_4_1_3"/>
    <trip id="1_244" depart="488.00" from="road_3_0_1" to="road_3_4_1"/>
    <trip id="1_245" depart="490.00" from="road_0_4_0" to="road_1_3_2"/>
    <trip id="1_246" depart="492.00" from="road_2_0_1" to="road_1_1_2"/>
    <trip id="1_247" depart="494.00" from="road_1_5_3" to="road_4_1_0"/>
    <trip id="1_248" depart="496.00" from="road_2_0_1" to="road_1_2_2"/>
    <trip id="1_249" depart="498.00" from="road_2_5_3" to="road_1_2_2"/>
    <trip id="1_250" depart="500.00" from="road_3_5_3" to="road_1_1_2"/>
    <trip id="1_251" depart="502.00" from="road_2_0_1" to="road_3_4_1"/>
    <trip id="1_252" depart="504.00" from="road_0_1_0" to="road_4_1_0"/>
    <trip id="1_253" depart="506.00" from="road_0_3_0" to="road_2_4_1"/>
    <trip id="1_254" depart="508.00" from="road_0_1_0" to="road_2_1_3"/>
    <trip id="1_255" depart="510.00" from="road_0_4_0" to="road_1_4_2"/>
    <trip id="1_256" depart="512.00" from="road_5_1_2" to="road_2_1_3"/>
    <trip id="1_257" depart="514.00" from="road_5_1_2" to="road_4_3_0"/>
    <trip id="1_258" depart="516.00" from="road_1_0_1" to="road_1_1_3"/>
    <trip id="1_259" depart="518.00" from="road_0_1_0" to="road_3_1_3"/>
    <trip id="1_260" depart="520.00" from="road_5_4_2" to="road_1_4_2"/>
    <trip id="1_261" depart="522.00" from="road_4_0_1" to="road_4_2_0"/>
    <trip id="1_262" depart="524.00" from="road_4_0_1" to="road_4_2_0"/>
    <trip id="1_263" depart="526.00" from="road_5_4_2" to="road_1_3_2"/>
    <trip id="1_264" depart="528.00" from="road_0_1_0" to="road_1_2_2"/>
    <trip id="1_265" depart="530.00" from="road_0_3_0" to="road_4_1_0"/>
    <trip id="1_266" depart="532.00" from="road_3_5_3" to="road_1_3_2"/>
    <trip id="1_267" depart="534.00" from="road_4_5_3" to="road_4_2_0"/>
    <trip id="1_268" depart="536.00" from="road_0_3_0" to="road_3_4_1"/>
    <trip id="1_269" depart="538.00" from="road_4_5_3" to="road_1_1_3"/>
    <trip id="1_270" depart="540.00" from="road_5_2_2" to="road_4_4_1"/>
    <trip id="1_271" depart="542.00" from="road_0_2_0" to="road_1_1_2"/>
    <trip id="1_272" depart="544.00" from="road_1_0_1" to="road_4_1_0"/>
    <trip id="1_273" depart="546.00" from="road_5_4_2" to="road_2_1_3"/>
    <trip id="1_274" depart="548.00" from="road_4_5_3" to="road_1_1_3"/>
    <trip id="1_275" depart="550.00" from="road_4_5_3" to="road_4_1_0"/>
    <trip id="1_276" depart="552.00" from="road_0_2_0" to="road_4_2_0"/>
    <trip id="1_277" depart="554.00" from="road_5_2_2" to="road_3_4_1"/>
    <trip id="1_278" depart="556.00" from="road_0_2_0" to="road_4_4_1"/>
    <trip id="1_279" depart="558.00" from="road_5_1_2" to="road_1_4_2"/>
    <trip id="1_280" depart="560.00" from="road_2_0_1" to="road_1_4_2"/>
    <trip id="1_281" depart="562.00" from="road_3_0_1" to="road_1_4_2"/>
    <trip id="1_282" depart="564.00" from="road_5_2_2" to="road_4_3_0"/>
    <trip id="1_283" depart="566.00" from="road_0_2_0" to="road_4_4_1"/>
    <trip id="1_284" depart="568.00" from="road_4_0_1" to="road_4_3_0"/>
    <trip id="1_285" depart="570.00" from="road_4_5_3" to="road_2_1_3"/>
    <trip id="1_286" depart="572.00" from="road_4_5_3" to="road_4_4_1"/>
    <trip id="1_287" depart="574.00" from="road_1_0_1" to="road_4_2_0"/>
    <trip id="1_288" depart="576.00" from="road_3_0_1" to="road_2_4_1"/>
    <trip id="1_289" depart="578.00" from="road_2_0_1" to="road_4_1_3"/>
    <trip id="1_290" depart="580.00" from="road_1_0_1" to="road_4_3_0"/>
    <trip id="1_291" depart="582.00" from="road_5_2_2" to="road_1_1_3"/>
    <trip id="1_292" depart="584.00" from="road_5_3_2" to="road_1_3_2"/>
    <trip id="1_293" depart="586.00" from="road_2_5_3" to="road_3_4_1"/>
    <trip id="1_294" depart="588.00" from="road_2_0_1" to="road_1_1_2"/>
    <trip id="1_295" depart="590.00" from="road_5_2_2" to="road_1_2_2"/>
    <trip id="1_296" depart="592.00" from="road_0_4_0" to="road_4_2_0"/>
    <trip id="1_297" depart="594.00" from="road_1_5_3" to="road_4_4_0"/>
    <trip id="1_298" depart="596.00" from="road_4_5_3" to="road_1_4_1"/>
    <trip id="1_299" depart="598.00" from="road_0_1_0" to="road_4_4_1"/>
</routes>
