<?xml version="1.0" encoding="UTF-8"?>
<!-- generated on 2024-10-12 18:03:32.705978 by randomTrips.py v1_11_0+0000-d32ff7d52a3
  options: -n 4_Phase.net.xml -b 1200 -e 2400 <doubleminus>period 1 <doubleminus>fringe-factor 7200 -L -o uniform_22.trips.xml
-->
<routes xmlns:xsi="http://www.w3.org/2001/XMLSchema-instance" xsi:noNamespaceSchemaLocation="http://sumo.dlr.de/xsd/routes_file.xsd">
    <trip id="2.0" depart="1200.00" from="road_4_0_1" to="road_1_1_2"/>
    <trip id="2.1" depart="1201.00" from="road_1_0_1" to="road_1_3_2"/>
    <trip id="2.2" depart="1202.00" from="road_4_5_3" to="road_4_1_0"/>
    <trip id="2.3" depart="1203.00" from="road_5_3_2" to="road_1_1_3"/>
    <trip id="2.4" depart="1204.00" from="road_2_0_1" to="road_1_1_2"/>
    <trip id="2.5" depart="1205.00" from="road_0_4_0" to="road_3_1_3"/>
    <trip id="2.6" depart="1206.00" from="road_0_1_0" to="road_1_3_2"/>
    <trip id="2.7" depart="1207.00" from="road_4_0_1" to="road_3_1_3"/>
    <trip id="2.8" depart="1208.00" from="road_0_4_0" to="road_3_4_1"/>
    <trip id="2.9" depart="1209.00" from="road_5_1_2" to="road_1_1_2"/>
    <trip id="2.10" depart="1210.00" from="road_5_1_2" to="road_4_1_3"/>
    <trip id="2.11" depart="1211.00" from="road_1_5_3" to="road_1_2_2"/>
    <trip id="2.12" depart="1212.00" from="road_5_4_2" to="road_1_4_2"/>
    <trip id="2.13" depart="1213.00" from="road_0_2_0" to="road_1_1_3"/>
    <trip id="2.14" depart="1214.00" from="road_5_2_2" to="road_3_4_1"/>
    <trip id="2.15" depart="1215.00" from="road_5_1_2" to="road_4_1_3"/>
    <trip id="2.16" depart="1216.00" from="road_3_0_1" to="road_4_4_1"/>
    <trip id="2.17" depart="1217.00" from="road_2_0_1" to="road_3_1_3"/>
    <trip id="2.18" depart="1218.00" from="road_5_2_2" to="road_3_4_1"/>
    <trip id="2.19" depart="1219.00" from="road_5_2_2" to="road_3_4_1"/>
    <trip id="2.20" depart="1220.00" from="road_4_5_3" to="road_1_1_2"/>
    <trip id="2.21" depart="1221.00" from="road_0_4_0" to="road_1_4_1"/>
    <trip id="2.22" depart="1222.00" from="road_0_2_0" to="road_1_3_2"/>
    <trip id="2.23" depart="1223.00" from="road_0_2_0" to="road_1_4_1"/>
    <trip id="2.24" depart="1224.00" from="road_4_0_1" to="road_1_4_2"/>
    <trip id="2.25" depart="1225.00" from="road_1_5_3" to="road_1_3_2"/>
    <trip id="2.26" depart="1226.00" from="road_1_0_1" to="road_4_4_0"/>
    <trip id="2.27" depart="1227.00" from="road_4_0_1" to="road_3_4_1"/>
    <trip id="2.28" depart="1228.00" from="road_0_3_0" to="road_4_1_3"/>
    <trip id="2.29" depart="1229.00" from="road_0_3_0" to="road_2_1_3"/>
    <trip id="2.30" depart="1230.00" from="road_5_4_2" to="road_4_1_0"/>
    <trip id="2.31" depart="1231.00" from="road_3_0_1" to="road_4_1_0"/>
    <trip id="2.32" depart="1232.00" from="road_5_2_2" to="road_4_2_0"/>
    <trip id="2.33" depart="1233.00" from="road_0_4_0" to="road_1_1_2"/>
    <trip id="2.34" depart="1234.00" from="road_1_5_3" to="road_1_4_1"/>
    <trip id="2.35" depart="1235.00" from="road_0_4_0" to="road_4_4_1"/>
    <trip id="2.36" depart="1236.00" from="road_5_3_2" to="road_1_4_2"/>
    <trip id="2.37" depart="1237.00" from="road_4_0_1" to="road_2_1_3"/>
    <trip id="2.38" depart="1238.00" from="road_5_3_2" to="road_2_4_1"/>
    <trip id="2.39" depart="1239.00" from="road_1_0_1" to="road_1_3_2"/>
    <trip id="2.40" depart="1240.00" from="road_3_0_1" to="road_1_4_1"/>
    <trip id="2.41" depart="1241.00" from="road_3_5_3" to="road_4_4_0"/>
    <trip id="2.42" depart="1242.00" from="road_2_0_1" to="road_1_3_2"/>
    <trip id="2.43" depart="1243.00" from="road_5_4_2" to="road_3_1_3"/>
    <trip id="2.44" depart="1244.00" from="road_0_2_0" to="road_1_1_2"/>
    <trip id="2.45" depart="1245.00" from="road_0_2_0" to="road_4_1_0"/>
    <trip id="2.46" depart="1246.00" from="road_5_1_2" to="road_2_1_3"/>
    <trip id="2.47" depart="1247.00" from="road_0_2_0" to="road_2_1_3"/>
    <trip id="2.48" depart="1248.00" from="road_5_4_2" to="road_3_1_3"/>
    <trip id="2.49" depart="1249.00" from="road_5_4_2" to="road_4_3_0"/>
    <trip id="2.50" depart="1250.00" from="road_0_1_0" to="road_4_1_3"/>
    <trip id="2.51" depart="1251.00" from="road_4_0_1" to="road_3_1_3"/>
    <trip id="2.52" depart="1252.00" from="road_1_0_1" to="road_4_1_0"/>
    <trip id="2.53" depart="1253.00" from="road_0_2_0" to="road_2_1_3"/>
    <trip id="2.54" depart="1254.00" from="road_2_5_3" to="road_4_4_1"/>
    <trip id="2.55" depart="1255.00" from="road_5_3_2" to="road_1_4_1"/>
    <trip id="2.56" depart="1256.00" from="road_3_0_1" to="road_1_2_2"/>
    <trip id="2.57" depart="1257.00" from="road_5_3_2" to="road_4_3_0"/>
    <trip id="2.58" depart="1258.00" from="road_1_0_1" to="road_4_1_0"/>
    <trip id="2.59" depart="1259.00" from="road_3_5_3" to="road_1_2_2"/>
    <trip id="2.60" depart="1260.00" from="road_5_1_2" to="road_3_1_3"/>
    <trip id="2.61" depart="1261.00" from="road_5_1_2" to="road_3_1_3"/>
    <trip id="2.62" depart="1262.00" from="road_0_1_0" to="road_1_4_2"/>
    <trip id="2.63" depart="1263.00" from="road_0_1_0" to="road_4_4_0"/>
    <trip id="2.64" depart="1264.00" from="road_5_3_2" to="road_4_3_0"/>
    <trip id="2.65" depart="1265.00" from="road_1_0_1" to="road_1_1_2"/>
    <trip id="2.66" depart="1266.00" from="road_5_3_2" to="road_4_4_1"/>
    <trip id="2.67" depart="1267.00" from="road_0_2_0" to="road_2_4_1"/>
    <trip id="2.68" depart="1268.00" from="road_0_2_0" to="road_4_2_0"/>
    <trip id="2.69" depart="1269.00" from="road_5_1_2" to="road_1_2_2"/>
    <trip id="2.70" depart="1270.00" from="road_2_5_3" to="road_3_1_3"/>
    <trip id="2.71" depart="1271.00" from="road_1_0_1" to="road_4_3_0"/>
    <trip id="2.72" depart="1272.00" from="road_2_0_1" to="road_1_3_2"/>
    <trip id="2.73" depart="1273.00" from="road_3_0_1" to="road_4_1_3"/>
    <trip id="2.74" depart="1274.00" from="road_0_4_0" to="road_1_4_1"/>
    <trip id="2.75" depart="1275.00" from="road_5_4_2" to="road_4_1_0"/>
    <trip id="2.76" depart="1276.00" from="road_2_5_3" to="road_3_1_3"/>
    <trip id="2.77" depart="1277.00" from="road_0_2_0" to="road_1_3_2"/>
    <trip id="2.78" depart="1278.00" from="road_1_5_3" to="road_3_4_1"/>
    <trip id="2.79" depart="1279.00" from="road_0_4_0" to="road_1_3_2"/>
    <trip id="2.80" depart="1280.00" from="road_0_2_0" to="road_4_1_0"/>
    <trip id="2.81" depart="1281.00" from="road_0_4_0" to="road_4_4_0"/>
    <trip id="2.82" depart="1282.00" from="road_5_2_2" to="road_1_1_3"/>
    <trip id="2.83" depart="1283.00" from="road_0_4_0" to="road_4_1_0"/>
    <trip id="2.84" depart="1284.00" from="road_0_4_0" to="road_1_2_2"/>
    <trip id="2.85" depart="1285.00" from="road_5_3_2" to="road_3_4_1"/>
    <trip id="2.86" depart="1286.00" from="road_2_5_3" to="road_4_2_0"/>
    <trip id="2.87" depart="1287.00" from="road_5_1_2" to="road_1_3_2"/>
    <trip id="2.88" depart="1288.00" from="road_0_2_0" to="road_2_1_3"/>
    <trip id="2.89" depart="1289.00" from="road_2_0_1" to="road_2_4_1"/>
    <trip id="2.90" depart="1290.00" from="road_4_5_3" to="road_4_1_0"/>
    <trip id="2.91" depart="1291.00" from="road_5_4_2" to="road_1_1_3"/>
    <trip id="2.92" depart="1292.00" from="road_2_0_1" to="road_1_4_2"/>
    <trip id="2.93" depart="1293.00" from="road_5_2_2" to="road_1_3_2"/>
    <trip id="2.94" depart="1294.00" from="road_0_4_0" to="road_2_4_1"/>
    <trip id="2.95" depart="1295.00" from="road_2_0_1" to="road_1_4_1"/>
    <trip id="2.96" depart="1296.00" from="road_0_4_0" to="road_4_4_0"/>
    <trip id="2.97" depart="1297.00" from="road_2_5_3" to="road_4_3_0"/>
    <trip id="2.98" depart="1298.00" from="road_3_0_1" to="road_1_1_2"/>
    <trip id="2.99" depart="1299.00" from="road_5_4_2" to="road_4_3_0"/>
    <trip id="2.100" depart="1300.00" from="road_5_4_2" to="road_4_4_0"/>
    <trip id="2.101" depart="1301.00" from="road_5_2_2" to="road_1_2_2"/>
    <trip id="2.102" depart="1302.00" from="road_2_5_3" to="road_1_3_2"/>
    <trip id="2.103" depart="1303.00" from="road_2_0_1" to="road_1_1_2"/>
    <trip id="2.104" depart="1304.00" from="road_2_0_1" to="road_4_4_1"/>
    <trip id="2.105" depart="1305.00" from="road_1_0_1" to="road_4_2_0"/>
    <trip id="2.106" depart="1306.00" from="road_2_5_3" to="road_2_1_3"/>
    <trip id="2.107" depart="1307.00" from="road_5_4_2" to="road_4_4_1"/>
    <trip id="2.108" depart="1308.00" from="road_3_0_1" to="road_4_1_3"/>
    <trip id="2.109" depart="1309.00" from="road_0_3_0" to="road_1_4_1"/>
    <trip id="2.110" depart="1310.00" from="road_5_4_2" to="road_3_4_1"/>
    <trip id="2.111" depart="1311.00" from="road_3_0_1" to="road_4_1_3"/>
    <trip id="2.112" depart="1312.00" from="road_0_1_0" to="road_3_4_1"/>
    <trip id="2.113" depart="1313.00" from="road_3_0_1" to="road_4_3_0"/>
    <trip id="2.114" depart="1314.00" from="road_0_3_0" to="road_4_4_1"/>
    <trip id="2.115" depart="1315.00" from="road_0_2_0" to="road_1_2_2"/>
    <trip id="2.116" depart="1316.00" from="road_3_5_3" to="road_4_1_0"/>
    <trip id="2.117" depart="1317.00" from="road_0_4_0" to="road_1_1_3"/>
    <trip id="2.118" depart="1318.00" from="road_5_3_2" to="road_1_3_2"/>
    <trip id="2.119" depart="1319.00" from="road_3_5_3" to="road_3_4_1"/>
    <trip id="2.120" depart="1320.00" from="road_2_0_1" to="road_3_4_1"/>
    <trip id="2.121" depart="1321.00" from="road_3_0_1" to="road_4_4_0"/>
    <trip id="2.122" depart="1322.00" from="road_0_4_0" to="road_4_1_3"/>
    <trip id="2.123" depart="1323.00" from="road_0_4_0" to="road_2_1_3"/>
    <trip id="2.124" depart="1324.00" from="road_4_0_1" to="road_1_4_1"/>
    <trip id="2.125" depart="1325.00" from="road_1_5_3" to="road_4_2_0"/>
    <trip id="2.126" depart="1326.00" from="road_0_2_0" to="road_2_4_1"/>
    <trip id="2.127" depart="1327.00" from="road_5_4_2" to="road_4_4_1"/>
    <trip id="2.128" depart="1328.00" from="road_0_2_0" to="road_1_3_2"/>
    <trip id="2.129" depart="1329.00" from="road_1_0_1" to="road_4_4_0"/>
    <trip id="2.130" depart="1330.00" from="road_5_3_2" to="road_4_4_0"/>
    <trip id="2.131" depart="1331.00" from="road_1_5_3" to="road_1_2_2"/>
    <trip id="2.132" depart="1332.00" from="road_5_2_2" to="road_4_1_3"/>
    <trip id="2.133" depart="1333.00" from="road_3_5_3" to="road_4_4_1"/>
    <trip id="2.134" depart="1334.00" from="road_4_0_1" to="road_1_1_2"/>
    <trip id="2.135" depart="1335.00" from="road_5_2_2" to="road_1_4_1"/>
    <trip id="2.136" depart="1336.00" from="road_4_0_1" to="road_4_4_1"/>
    <trip id="2.137" depart="1337.00" from="road_0_3_0" to="road_1_1_3"/>
    <trip id="2.138" depart="1338.00" from="road_0_2_0" to="road_3_1_3"/>
    <trip id="2.139" depart="1339.00" from="road_1_0_1" to="road_3_4_1"/>
    <trip id="2.140" depart="1340.00" from="road_4_5_3" to="road_1_3_2"/>
    <trip id="2.141" depart="1341.00" from="road_4_0_1" to="road_1_4_1"/>
    <trip id="2.142" depart="1342.00" from="road_2_5_3" to="road_4_4_0"/>
    <trip id="2.143" depart="1343.00" from="road_5_2_2" to="road_1_1_3"/>
    <trip id="2.144" depart="1344.00" from="road_2_0_1" to="road_1_4_1"/>
    <trip id="2.145" depart="1345.00" from="road_0_1_0" to="road_4_2_0"/>
    <trip id="2.146" depart="1346.00" from="road_4_0_1" to="road_1_4_1"/>
    <trip id="2.147" depart="1347.00" from="road_4_5_3" to="road_3_1_3"/>
    <trip id="2.148" depart="1348.00" from="road_2_0_1" to="road_1_1_2"/>
    <trip id="2.149" depart="1349.00" from="road_0_2_0" to="road_4_4_0"/>
    <trip id="2.150" depart="1350.00" from="road_5_3_2" to="road_3_1_3"/>
    <trip id="2.151" depart="1351.00" from="road_5_2_2" to="road_3_4_1"/>
    <trip id="2.152" depart="1352.00" from="road_0_3_0" to="road_1_2_2"/>
    <trip id="2.153" depart="1353.00" from="road_1_0_1" to="road_4_4_0"/>
    <trip id="2.154" depart="1354.00" from="road_5_1_2" to="road_4_3_0"/>
    <trip id="2.155" depart="1355.00" from="road_5_3_2" to="road_1_3_2"/>
    <trip id="2.156" depart="1356.00" from="road_0_4_0" to="road_1_1_3"/>
    <trip id="2.157" depart="1357.00" from="road_5_1_2" to="road_4_4_0"/>
    <trip id="2.158" depart="1358.00" from="road_2_0_1" to="road_3_4_1"/>
    <trip id="2.159" depart="1359.00" from="road_0_3_0" to="road_4_4_0"/>
    <trip id="2.160" depart="1360.00" from="road_5_2_2" to="road_4_4_1"/>
    <trip id="2.161" depart="1361.00" from="road_5_1_2" to="road_4_4_0"/>
    <trip id="2.162" depart="1362.00" from="road_0_1_0" to="road_4_1_3"/>
    <trip id="2.163" depart="1363.00" from="road_1_5_3" to="road_4_4_0"/>
    <trip id="2.164" depart="1364.00" from="road_5_1_2" to="road_4_3_0"/>
    <trip id="2.165" depart="1365.00" from="road_5_1_2" to="road_1_4_1"/>
    <trip id="2.166" depart="1366.00" from="road_5_1_2" to="road_1_1_3"/>
    <trip id="2.167" depart="1367.00" from="road_5_2_2" to="road_4_3_0"/>
    <trip id="2.168" depart="1368.00" from="road_0_4_0" to="road_4_3_0"/>
    <trip id="2.169" depart="1369.00" from="road_2_5_3" to="road_1_4_1"/>
    <trip id="2.170" depart="1370.00" from="road_5_1_2" to="road_1_3_2"/>
    <trip id="2.171" depart="1371.00" from="road_0_1_0" to="road_1_3_2"/>
    <trip id="2.172" depart="1372.00" from="road_1_5_3" to="road_4_3_0"/>
    <trip id="2.173" depart="1373.00" from="road_5_4_2" to="road_1_4_1"/>
    <trip id="2.174" depart="1374.00" from="road_4_0_1" to="road_2_1_3"/>
    <trip id="2.175" depart="1375.00" from="road_5_4_2" to="road_3_1_3"/>
    <trip id="2.176" depart="1376.00" from="road_5_4_2" to="road_1_1_3"/>
    <trip id="2.177" depart="1377.00" from="road_5_4_2" to="road_1_2_2"/>
    <trip id="2.178" depart="1378.00" from="road_5_4_2" to="road_1_4_1"/>
    <trip id="2.179" depart="1379.00" from="road_0_2_0" to="road_2_1_3"/>
    <trip id="2.180" depart="1380.00" from="road_4_5_3" to="road_1_4_2"/>
    <trip id="2.181" depart="1381.00" from="road_3_5_3" to="road_3_1_3"/>
    <trip id="2.182" depart="1382.00" from="road_2_0_1" to="road_3_4_1"/>
    <trip id="2.183" depart="1383.00" from="road_1_0_1" to="road_4_1_3"/>
    <trip id="2.184" depart="1384.00" from="road_0_1_0" to="road_4_4_0"/>
    <trip id="2.185" depart="1385.00" from="road_3_0_1" to="road_4_1_3"/>
    <trip id="2.186" depart="1386.00" from="road_4_5_3" to="road_4_1_0"/>
    <trip id="2.187" depart="1387.00" from="road_1_5_3" to="road_1_1_3"/>
    <trip id="2.188" depart="1388.00" from="road_4_0_1" to="road_1_4_2"/>
    <trip id="2.189" depart="1389.00" from="road_1_5_3" to="road_4_3_0"/>
    <trip id="2.190" depart="1390.00" from="road_4_5_3" to="road_1_4_1"/>
    <trip id="2.191" depart="1391.00" from="road_1_0_1" to="road_2_1_3"/>
    <trip id="2.192" depart="1392.00" from="road_2_0_1" to="road_1_4_1"/>
    <trip id="2.193" depart="1393.00" from="road_0_3_0" to="road_2_1_3"/>
    <trip id="2.194" depart="1394.00" from="road_5_4_2" to="road_4_1_0"/>
    <trip id="2.195" depart="1395.00" from="road_5_3_2" to="road_3_4_1"/>
    <trip id="2.196" depart="1396.00" from="road_1_0_1" to="road_3_1_3"/>
    <trip id="2.197" depart="1397.00" from="road_0_1_0" to="road_1_4_1"/>
    <trip id="2.198" depart="1398.00" from="road_2_0_1" to="road_3_4_1"/>
    <trip id="2.199" depart="1399.00" from="road_4_0_1" to="road_2_4_1"/>
    <trip id="2.200" depart="1400.00" from="road_2_5_3" to="road_1_3_2"/>
    <trip id="2.201" depart="1401.00" from="road_2_5_3" to="road_4_4_0"/>
    <trip id="2.202" depart="1402.00" from="road_5_1_2" to="road_1_2_2"/>
    <trip id="2.203" depart="1403.00" from="road_0_2_0" to="road_3_1_3"/>
    <trip id="2.204" depart="1404.00" from="road_4_0_1" to="road_1_4_2"/>
    <trip id="2.205" depart="1405.00" from="road_5_2_2" to="road_4_2_0"/>
    <trip id="2.206" depart="1406.00" from="road_4_0_1" to="road_1_3_2"/>
    <trip id="2.207" depart="1407.00" from="road_0_4_0" to="road_1_1_2"/>
    <trip id="2.208" depart="1408.00" from="road_0_4_0" to="road_2_4_1"/>
    <trip id="2.209" depart="1409.00" from="road_5_2_2" to="road_1_1_3"/>
    <trip id="2.210" depart="1410.00" from="road_2_0_1" to="road_4_1_0"/>
    <trip id="2.211" depart="1411.00" from="road_0_4_0" to="road_4_1_3"/>
    <trip id="2.212" depart="1412.00" from="road_2_5_3" to="road_1_3_2"/>
    <trip id="2.213" depart="1413.00" from="road_4_0_1" to="road_1_1_2"/>
    <trip id="2.214" depart="1414.00" from="road_5_1_2" to="road_4_2_0"/>
    <trip id="2.215" depart="1415.00" from="road_0_2_0" to="road_2_1_3"/>
    <trip id="2.216" depart="1416.00" from="road_0_3_0" to="road_4_4_1"/>
    <trip id="2.217" depart="1417.00" from="road_3_0_1" to="road_1_1_2"/>
    <trip id="2.218" depart="1418.00" from="road_0_4_0" to="road_4_3_0"/>
    <trip id="2.219" depart="1419.00" from="road_2_5_3" to="road_4_2_0"/>
    <trip id="2.220" depart="1420.00" from="road_4_0_1" to="road_4_4_1"/>
    <trip id="2.221" depart="1421.00" from="road_3_5_3" to="road_4_4_1"/>
    <trip id="2.222" depart="1422.00" from="road_5_3_2" to="road_3_4_1"/>
    <trip id="2.223" depart="1423.00" from="road_4_5_3" to="road_3_1_3"/>
    <trip id="2.224" depart="1424.00" from="road_5_2_2" to="road_3_1_3"/>
    <trip id="2.225" depart="1425.00" from="road_5_3_2" to="road_4_1_3"/>
    <trip id="2.226" depart="1426.00" from="road_2_5_3" to="road_1_4_1"/>
    <trip id="2.227" depart="1427.00" from="road_0_4_0" to="road_4_1_0"/>
    <trip id="2.228" depart="1428.00" from="road_5_1_2" to="road_3_1_3"/>
    <trip id="2.229" depart="1429.00" from="road_4_0_1" to="road_1_4_1"/>
    <trip id="2.230" depart="1430.00" from="road_0_2_0" to="road_1_4_1"/>
    <trip id="2.231" depart="1431.00" from="road_1_0_1" to="road_1_4_2"/>
    <trip id="2.232" depart="1432.00" from="road_3_0_1" to="road_1_2_2"/>
    <trip id="2.233" depart="1433.00" from="road_0_4_0" to="road_4_1_3"/>
    <trip id="2.234" depart="1434.00" from="road_4_5_3" to="road_1_1_3"/>
    <trip id="2.235" depart="1435.00" from="road_2_0_1" to="road_3_1_3"/>
    <trip id="2.236" depart="1436.00" from="road_2_0_1" to="road_1_3_2"/>
    <trip id="2.237" depart="1437.00" from="road_2_0_1" to="road_4_4_0"/>
    <trip id="2.238" depart="1438.00" from="road_3_5_3" to="road_4_1_3"/>
    <trip id="2.239" depart="1439.00" from="road_5_2_2" to="road_4_2_0"/>
    <trip id="2.240" depart="1440.00" from="road_2_0_1" to="road_1_1_2"/>
    <trip id="2.241" depart="1441.00" from="road_1_5_3" to="road_4_2_0"/>
    <trip id="2.242" depart="1442.00" from="road_5_2_2" to="road_4_4_1"/>
    <trip id="2.243" depart="1443.00" from="road_2_0_1" to="road_4_1_3"/>
    <trip id="2.244" depart="1444.00" from="road_3_0_1" to="road_3_4_1"/>
    <trip id="2.245" depart="1445.00" from="road_0_4_0" to="road_1_3_2"/>
    <trip id="2.246" depart="1446.00" from="road_2_0_1" to="road_1_1_2"/>
    <trip id="2.247" depart="1447.00" from="road_1_5_3" to="road_4_1_0"/>
    <trip id="2.248" depart="1448.00" from="road_2_0_1" to="road_1_2_2"/>
    <trip id="2.249" depart="1449.00" from="road_2_5_3" to="road_1_2_2"/>
    <trip id="2.250" depart="1450.00" from="road_3_5_3" to="road_1_1_2"/>
    <trip id="2.251" depart="1451.00" from="road_2_0_1" to="road_3_4_1"/>
    <trip id="2.252" depart="1452.00" from="road_0_1_0" to="road_4_1_0"/>
    <trip id="2.253" depart="1453.00" from="road_0_3_0" to="road_2_4_1"/>
    <trip id="2.254" depart="1454.00" from="road_0_1_0" to="road_2_1_3"/>
    <trip id="2.255" depart="1455.00" from="road_0_4_0" to="road_1_4_2"/>
    <trip id="2.256" depart="1456.00" from="road_5_1_2" to="road_2_1_3"/>
    <trip id="2.257" depart="1457.00" from="road_5_1_2" to="road_4_3_0"/>
    <trip id="2.258" depart="1458.00" from="road_1_0_1" to="road_1_1_3"/>
    <trip id="2.259" depart="1459.00" from="road_0_1_0" to="road_3_1_3"/>
    <trip id="2.260" depart="1460.00" from="road_5_4_2" to="road_1_4_2"/>
    <trip id="2.261" depart="1461.00" from="road_4_0_1" to="road_4_2_0"/>
    <trip id="2.262" depart="1462.00" from="road_4_0_1" to="road_4_2_0"/>
    <trip id="2.263" depart="1463.00" from="road_5_4_2" to="road_1_3_2"/>
    <trip id="2.264" depart="1464.00" from="road_0_1_0" to="road_1_2_2"/>
    <trip id="2.265" depart="1465.00" from="road_0_3_0" to="road_4_1_0"/>
    <trip id="2.266" depart="1466.00" from="road_3_5_3" to="road_1_3_2"/>
    <trip id="2.267" depart="1467.00" from="road_4_5_3" to="road_4_2_0"/>
    <trip id="2.268" depart="1468.00" from="road_0_3_0" to="road_3_4_1"/>
    <trip id="2.269" depart="1469.00" from="road_4_5_3" to="road_1_1_3"/>
    <trip id="2.270" depart="1470.00" from="road_5_2_2" to="road_4_4_1"/>
    <trip id="2.271" depart="1471.00" from="road_0_2_0" to="road_1_1_2"/>
    <trip id="2.272" depart="1472.00" from="road_1_0_1" to="road_4_1_0"/>
    <trip id="2.273" depart="1473.00" from="road_5_4_2" to="road_2_1_3"/>
    <trip id="2.274" depart="1474.00" from="road_4_5_3" to="road_1_1_3"/>
    <trip id="2.275" depart="1475.00" from="road_4_5_3" to="road_4_1_0"/>
    <trip id="2.276" depart="1476.00" from="road_0_2_0" to="road_4_2_0"/>
    <trip id="2.277" depart="1477.00" from="road_5_2_2" to="road_3_4_1"/>
    <trip id="2.278" depart="1478.00" from="road_0_2_0" to="road_4_4_1"/>
    <trip id="2.279" depart="1479.00" from="road_5_1_2" to="road_1_4_2"/>
    <trip id="2.280" depart="1480.00" from="road_2_0_1" to="road_1_4_2"/>
    <trip id="2.281" depart="1481.00" from="road_3_0_1" to="road_1_4_2"/>
    <trip id="2.282" depart="1482.00" from="road_5_2_2" to="road_4_3_0"/>
    <trip id="2.283" depart="1483.00" from="road_0_2_0" to="road_4_4_1"/>
    <trip id="2.284" depart="1484.00" from="road_4_0_1" to="road_4_3_0"/>
    <trip id="2.285" depart="1485.00" from="road_4_5_3" to="road_2_1_3"/>
    <trip id="2.286" depart="1486.00" from="road_4_5_3" to="road_4_4_1"/>
    <trip id="2.287" depart="1487.00" from="road_1_0_1" to="road_4_2_0"/>
    <trip id="2.288" depart="1488.00" from="road_3_0_1" to="road_2_4_1"/>
    <trip id="2.289" depart="1489.00" from="road_2_0_1" to="road_4_1_3"/>
    <trip id="2.290" depart="1490.00" from="road_1_0_1" to="road_4_3_0"/>
    <trip id="2.291" depart="1491.00" from="road_5_2_2" to="road_1_1_3"/>
    <trip id="2.292" depart="1492.00" from="road_5_3_2" to="road_1_3_2"/>
    <trip id="2.293" depart="1493.00" from="road_2_5_3" to="road_3_4_1"/>
    <trip id="2.294" depart="1494.00" from="road_2_0_1" to="road_1_1_2"/>
    <trip id="2.295" depart="1495.00" from="road_5_2_2" to="road_1_2_2"/>
    <trip id="2.296" depart="1496.00" from="road_0_4_0" to="road_4_2_0"/>
    <trip id="2.297" depart="1497.00" from="road_1_5_3" to="road_4_4_0"/>
    <trip id="2.298" depart="1498.00" from="road_4_5_3" to="road_1_4_1"/>
    <trip id="2.299" depart="1499.00" from="road_0_1_0" to="road_4_4_1"/>
    <trip id="2.300" depart="1500.00" from="road_0_2_0" to="road_4_1_3"/>
    <trip id="2.301" depart="1501.00" from="road_2_5_3" to="road_4_2_0"/>
    <trip id="2.302" depart="1502.00" from="road_4_5_3" to="road_4_1_0"/>
    <trip id="2.303" depart="1503.00" from="road_2_5_3" to="road_4_2_0"/>
    <trip id="2.304" depart="1504.00" from="road_0_2_0" to="road_1_3_2"/>
    <trip id="2.305" depart="1505.00" from="road_4_5_3" to="road_1_4_1"/>
    <trip id="2.306" depart="1506.00" from="road_3_5_3" to="road_2_4_1"/>
    <trip id="2.307" depart="1507.00" from="road_3_0_1" to="road_2_1_3"/>
    <trip id="2.308" depart="1508.00" from="road_4_5_3" to="road_1_4_2"/>
    <trip id="2.309" depart="1509.00" from="road_4_5_3" to="road_1_4_1"/>
    <trip id="2.310" depart="1510.00" from="road_1_0_1" to="road_1_1_3"/>
    <trip id="2.311" depart="1511.00" from="road_0_4_0" to="road_1_1_3"/>
    <trip id="2.312" depart="1512.00" from="road_3_0_1" to="road_4_2_0"/>
    <trip id="2.313" depart="1513.00" from="road_0_3_0" to="road_1_3_2"/>
    <trip id="2.314" depart="1514.00" from="road_2_5_3" to="road_4_1_3"/>
    <trip id="2.315" depart="1515.00" from="road_5_4_2" to="road_3_1_3"/>
    <trip id="2.316" depart="1516.00" from="road_1_0_1" to="road_1_1_3"/>
    <trip id="2.317" depart="1517.00" from="road_0_4_0" to="road_1_3_2"/>
    <trip id="2.318" depart="1518.00" from="road_0_3_0" to="road_1_1_2"/>
    <trip id="2.319" depart="1519.00" from="road_3_0_1" to="road_1_4_1"/>
    <trip id="2.320" depart="1520.00" from="road_5_4_2" to="road_3_1_3"/>
    <trip id="2.321" depart="1521.00" from="road_4_5_3" to="road_1_2_2"/>
    <trip id="2.322" depart="1522.00" from="road_5_2_2" to="road_2_4_1"/>
    <trip id="2.323" depart="1523.00" from="road_5_2_2" to="road_3_4_1"/>
    <trip id="2.324" depart="1524.00" from="road_2_5_3" to="road_2_4_1"/>
    <trip id="2.325" depart="1525.00" from="road_0_3_0" to="road_1_1_2"/>
    <trip id="2.326" depart="1526.00" from="road_5_4_2" to="road_2_4_1"/>
    <trip id="2.327" depart="1527.00" from="road_5_2_2" to="road_2_1_3"/>
    <trip id="2.328" depart="1528.00" from="road_0_2_0" to="road_4_1_0"/>
    <trip id="2.329" depart="1529.00" from="road_0_1_0" to="road_1_2_2"/>
    <trip id="2.330" depart="1530.00" from="road_3_5_3" to="road_1_4_1"/>
    <trip id="2.331" depart="1531.00" from="road_5_4_2" to="road_1_1_3"/>
    <trip id="2.332" depart="1532.00" from="road_5_1_2" to="road_3_4_1"/>
    <trip id="2.333" depart="1533.00" from="road_5_1_2" to="road_1_3_2"/>
    <trip id="2.334" depart="1534.00" from="road_3_0_1" to="road_2_4_1"/>
    <trip id="2.335" depart="1535.00" from="road_2_5_3" to="road_4_3_0"/>
    <trip id="2.336" depart="1536.00" from="road_5_4_2" to="road_1_4_1"/>
    <trip id="2.337" depart="1537.00" from="road_3_5_3" to="road_3_4_1"/>
    <trip id="2.338" depart="1538.00" from="road_4_5_3" to="road_4_4_1"/>
    <trip id="2.339" depart="1539.00" from="road_0_4_0" to="road_1_3_2"/>
    <trip id="2.340" depart="1540.00" from="road_4_0_1" to="road_1_2_2"/>
    <trip id="2.341" depart="1541.00" from="road_0_3_0" to="road_1_1_3"/>
    <trip id="2.342" depart="1542.00" from="road_0_1_0" to="road_2_4_1"/>
    <trip id="2.343" depart="1543.00" from="road_3_5_3" to="road_1_4_1"/>
    <trip id="2.344" depart="1544.00" from="road_0_4_0" to="road_4_1_3"/>
    <trip id="2.345" depart="1545.00" from="road_4_5_3" to="road_2_4_1"/>
    <trip id="2.346" depart="1546.00" from="road_4_0_1" to="road_4_4_0"/>
    <trip id="2.347" depart="1547.00" from="road_5_1_2" to="road_3_4_2"/>
    <trip id="2.348" depart="1548.00" from="road_4_0_1" to="road_4_4_0"/>
    <trip id="2.349" depart="1549.00" from="road_2_0_1" to="road_3_1_3"/>
    <trip id="2.350" depart="1550.00" from="road_4_0_1" to="road_4_4_0"/>
    <trip id="2.351" depart="1551.00" from="road_5_2_2" to="road_1_1_3"/>
    <trip id="2.352" depart="1552.00" from="road_0_3_0" to="road_1_4_1"/>
    <trip id="2.353" depart="1553.00" from="road_4_5_3" to="road_3_4_1"/>
    <trip id="2.354" depart="1554.00" from="road_1_0_1" to="road_1_1_3"/>
    <trip id="2.355" depart="1555.00" from="road_4_5_3" to="road_4_1_3"/>
    <trip id="2.356" depart="1556.00" from="road_5_4_2" to="road_3_1_3"/>
    <trip id="2.357" depart="1557.00" from="road_2_5_3" to="road_1_1_3"/>
    <trip id="2.358" depart="1558.00" from="road_0_1_0" to="road_2_1_3"/>
    <trip id="2.359" depart="1559.00" from="road_1_5_3" to="road_1_4_1"/>
    <trip id="2.360" depart="1560.00" from="road_0_2_0" to="road_4_4_1"/>
    <trip id="2.361" depart="1561.00" from="road_5_2_2" to="road_3_4_1"/>
    <trip id="2.362" depart="1562.00" from="road_5_4_2" to="road_4_4_1"/>
    <trip id="2.363" depart="1563.00" from="road_4_0_1" to="road_1_4_1"/>
    <trip id="2.364" depart="1564.00" from="road_0_1_0" to="road_4_2_0"/>
    <trip id="2.365" depart="1565.00" from="road_2_5_3" to="road_4_1_0"/>
    <trip id="2.366" depart="1566.00" from="road_5_3_2" to="road_1_2_2"/>
    <trip id="2.367" depart="1567.00" from="road_3_5_3" to="road_4_1_0"/>
    <trip id="2.368" depart="1568.00" from="road_2_5_3" to="road_1_1_3"/>
    <trip id="2.369" depart="1569.00" from="road_1_5_3" to="road_1_4_2"/>
    <trip id="2.370" depart="1570.00" from="road_4_0_1" to="road_4_3_0"/>
    <trip id="2.371" depart="1571.00" from="road_1_5_3" to="road_4_1_3"/>
    <trip id="2.372" depart="1572.00" from="road_1_0_1" to="road_4_4_1"/>
    <trip id="2.373" depart="1573.00" from="road_5_2_2" to="road_3_1_3"/>
    <trip id="2.374" depart="1574.00" from="road_2_5_3" to="road_1_4_2"/>
    <trip id="2.375" depart="1575.00" from="road_1_5_3" to="road_4_4_1"/>
    <trip id="2.376" depart="1576.00" from="road_2_0_1" to="road_3_1_3"/>
    <trip id="2.377" depart="1577.00" from="road_5_4_2" to="road_4_1_0"/>
    <trip id="2.378" depart="1578.00" from="road_3_0_1" to="road_2_1_3"/>
    <trip id="2.379" depart="1579.00" from="road_0_4_0" to="road_1_4_2"/>
    <trip id="2.380" depart="1580.00" from="road_5_1_2" to="road_4_1_0"/>
    <trip id="2.381" depart="1581.00" from="road_5_1_2" to="road_1_3_2"/>
    <trip id="2.382" depart="1582.00" from="road_3_0_1" to="road_4_4_0"/>
    <trip id="2.383" depart="1583.00" from="road_2_5_3" to="road_4_1_3"/>
    <trip id="2.384" depart="1584.00" from="road_0_2_0" to="road_4_4_1"/>
    <trip id="2.385" depart="1585.00" from="road_3_5_3" to="road_1_3_2"/>
    <trip id="2.386" depart="1586.00" from="road_0_3_0" to="road_3_1_3"/>
    <trip id="2.387" depart="1587.00" from="road_3_0_1" to="road_1_1_3"/>
    <trip id="2.388" depart="1588.00" from="road_5_4_2" to="road_4_4_0"/>
    <trip id="2.389" depart="1589.00" from="road_2_5_3" to="road_1_1_3"/>
    <trip id="2.390" depart="1590.00" from="road_5_2_2" to="road_2_4_1"/>
    <trip id="2.391" depart="1591.00" from="road_4_5_3" to="road_3_1_3"/>
    <trip id="2.392" depart="1592.00" from="road_1_0_1" to="road_4_3_0"/>
    <trip id="2.393" depart="1593.00" from="road_5_4_2" to="road_1_3_2"/>
    <trip id="2.394" depart="1594.00" from="road_3_0_1" to="road_2_1_3"/>
    <trip id="2.395" depart="1595.00" from="road_5_3_2" to="road_3_1_3"/>