<?xml version="1.0" encoding="utf-8"?>
<nodes xmlns:xsi="http://www.w3.org/2001/XMLSchema-instance" xsi:noNamespaceSchemaLocation="http://sumo.dlr.de/xsd/nodes_file.xsd">
	<node id="intersection_0_1" type="priority" x="-300" y="0"/>
	<node id="intersection_0_2" type="priority" x="-300" y="300"/>
	<node id="intersection_0_3" type="priority" x="-300" y="600"/>
	<node id="intersection_1_0" type="priority" x="0" y="-300"/>
	<node id="intersection_1_1" type="traffic_light_right_on_red" x="0" y="0"/>
	<node id="intersection_1_2" type="traffic_light_right_on_red" x="0" y="300"/>
	<node id="intersection_1_3" type="traffic_light_right_on_red" x="0" y="600"/>
	<node id="intersection_1_4" type="priority" x="0" y="900"/>
	<node id="intersection_2_0" type="priority" x="300" y="-300"/>
	<node id="intersection_2_1" type="traffic_light_right_on_red" x="300" y="0"/>
	<node id="intersection_2_2" type="traffic_light_right_on_red" x="300" y="300"/>
	<node id="intersection_2_3" type="traffic_light_right_on_red" x="300" y="600"/>
	<node id="intersection_2_4" type="priority" x="300" y="900"/>
	<node id="intersection_3_0" type="priority" x="600" y="-300"/>
	<node id="intersection_3_1" type="traffic_light_right_on_red" x="600" y="0"/>
	<node id="intersection_3_2" type="traffic_light_right_on_red" x="600" y="300"/>
	<node id="intersection_3_3" type="traffic_light_right_on_red" x="600" y="600"/>
	<node id="intersection_3_4" type="priority" x="600" y="900"/>
	<node id="intersection_4_1" type="priority" x="900" y="0"/>
	<node id="intersection_4_2" type="priority" x="900" y="300"/>
	<node id="intersection_4_3" type="priority" x="900" y="600"/>
</nodes>
